<?xml version="1.0" encoding="UTF-8"?>

<!-- generated on 2025-10-24 12:35:52.145209 by randomTrips.py v1_24_0+0000-b72eb3fabc8
<configuration>
    <net-file value="test.net.xml"/>
    <route-file value="map.rou.xml"/>
    <length value="True"/>
    <end value="1000.0"/>
</configuration>
-->

<!-- generated on 2025-10-24 12:35:50 by Eclipse SUMO duarouter Version 1.24.0
<duarouterConfiguration xmlns:xsi="http://www.w3.org/2001/XMLSchema-instance" xsi:noNamespaceSchemaLocation="http://sumo.dlr.de/xsd/duarouterConfiguration.xsd">

    <input>
        <net-file value="test.net.xml"/>
        <route-files value="trips.trips.xml"/>
    </input>

    <output>
        <output-file value="map.rou.xml"/>
        <alternatives-output value="NUL"/>
    </output>

    <time>
        <begin value="0"/>
        <end value="1000.0"/>
    </time>

    <report>
        <no-warnings value="true"/>
        <ignore-errors value="true"/>
        <no-step-log value="true"/>
    </report>

</duarouterConfiguration>
-->

<routes xmlns:xsi="http://www.w3.org/2001/XMLSchema-instance" xsi:noNamespaceSchemaLocation="http://sumo.dlr.de/xsd/routes_file.xsd">
    <vehicle id="0" depart="0.00">
        <route edges="377061440 -377061460#2 -377061444 -54225363#9 -54225363#8 -54225363#7 -54225363#6 -54225363#5 -54225363#4 -54225363#3 -54225363#2 -54225363#1 -54225363#0 -54225362#0 54225117#1 54225117#2 -346326711#2 -346326711#1 -346326711#0 -385841804#1 -385841804#0 -311546251 386281825#14 386281825#15 386281825#16 386281825#17 386281825#18 386281825#19 386281825#20 386281825#21 1117294918 1117294920 1117294919#0 368807686#0 368807686#1 368807686#2 54225119#0 54225119#1 -391087561 -131497266#1 -131497266#0"/>
    </vehicle>
    <vehicle id="1" depart="1.00">
        <route edges="-51914527#2 -51914527#1 -51914527#0 51914527#0 51914527#1 51914527#2 51914527#3 393277184#0 393277184#1 528562510 1159086616 925078220#0 925078220#1 925078220#2 925078220#3 343116285#0 343116285#1 343116285#2 343116285#3 343116285#4 343116285#5 343116285#6 1117294925 1117294930 1117294935 1117294939 1117294941#0 1117294941#1 1117294941#2 24563846 386281825#0 386281825#1 386281825#2 386281825#3 386281825#4 386281825#5 386281825#6 386281825#7 -391086658#0 -54225491#1 -54225491#0 -391086656#5 -391086656#4 -391086656#3 54225117#0 54225362#0 54225363#0 54225363#1 54225363#2 54225363#3 54225363#4 54225363#5 200543720#0 -475478808#0"/>
    </vehicle>
    <vehicle id="2" depart="2.00">
        <route edges="455043461 455043456 455043463 455043430 455043419#0 455043419#1 455043468 455043478#0 455043478#1 455043101 455043483#0 455043483#1 455043502 455043491#0 455043491#1 455043491#2 455043491#3 356578615#0 356578615#1 356578615#2 356578615#3 356578615#4 185733519#0 185733519#1 185733519#2 669745112#0 669745112#1 669745111#0 669745111#1 23169388 194099559#0 194099559#1 194099559#2 1301755558 1105413887 1301755557#0 1301755557#1 359947710#0 359947710#1 1109884434 359945311#0 359945311#1 359945311#2 359945311#3 53841328#0 53841328#1 53841328#2 359945309#0 359945309#1 359945309#2 359945310 1120006849#0 1120006849#1 839348507 665917692#0 665917692#1 665917692#2 359945312#0 359945312#1 359945312#2 359945312#3 23581014#0 23581014#1 23581014#2 23581014#3 23581014#4 23581014#5 1089605499 915331138#0 915331138#1 1121878512 48588707 386048812"/>
    </vehicle>
    <vehicle id="3" depart="3.00">
        <route edges="54225112 -54225120#0 -54225118#0 -391086662#0 -230197862#1 -230197862#0 -48795442 1117294917#4 1117294917#5 1117294917#6 1117294917#7 1117294917#8 1117294917#9 1117294917#10 309917887#0 309917887#1 309917887#2 309917887#3 309917887#4 309917887#5 309917887#6 309917887#7 309917887#8 309917894 309917893#0 309917893#1 1117294926#0 1117294928 1117294932 1117294934 1117294944#0 1117294944#1 1117294944#2 1117294944#3 1117294944#4 1117294944#5 1117294944#6 925078219#0 925078219#1 925078219#2 1159086613 366602634#0 366602634#1 48726959#0 48726959#1 48726959#2 48726959#3 48726959#4 48726959#5 48726959#6 48726959#7 48726959#8 48726959#9 51982426 385397103#0 385397103#1 941526159 389274955#0 389274955#1 389274955#2 389274955#3 389274955#4 389274955#5 389274955#6 389274955#7 389274955#8 389274955#9 389274955#10 389274955#11 389274955#12 389274955#13 389274955#14 389274955#15 389274955#16 389274955#17 389274955#18 389274955#19 389274955#20 389274955#21 389274955#22 389274955#23 389274955#24 389274955#25 939306291#0 939306291#1 939306291#2 939306291#3 939306291#4 939306291#5 1113382866 1148102168#1 1148102168#2 1148102168#3 24773533#0 1113382871 112452775#0 112452775#1 112452775#2 112452775#3 112452775#4 112452775#5 112452775#6 1109888116#0 1109888116#1 112452772#1 112656145 194099277 1109884449 48678604 1109884535 24793835#0 24793835#1 310937067 359947711 50732593#0 50732593#1 50732593#2 50732593#3 50732593#4 23951713#0 23951713#1 23951713#2 23951713#3 23951713#4 53091316 1107981340 -306675158#2 -306675158#1"/>
    </vehicle>
    <vehicle id="4" depart="4.00">
        <route edges="1135591776#0 1135591776#1 8748509#0 8748509#1 8748509#2 8748509#3 8748509#4 1148102167 144905255#0 144905255#1 144905255#2 1141512440#0 1141512440#1 1141512440#2 1141512440#3 1113382864#0 1113382864#1 24773533#0 24773533#1 24773533#2 24773533#3 1113382869 119971340#0 119971340#1 1059490102 359934145#0 359934145#1 1089605517 1089605512 1089605516#0 1089605516#1 359934144 359934142 48847399#5 48847399#6 48847399#0 48847399#1 48847399#2 310930757#0 310930757#1 308344854#0 308344854#1 311101595#0 311101595#1 311101595#2 -396033083 -366452499#3 -366452499#2 -13858379#5 -13858379#4"/>
    </vehicle>
    <vehicle id="5" depart="5.00">
        <route edges="-475478809#5 475478806#0 -200543720#1 -200543720#0 54225363#6 54225363#7 54225363#8 54225363#9 54225363#10 -343119761#1 -343119761#0 -343119762#3 -343119762#2 -343119762#1 -343119762#0 343119763#1 343119763#2 343119763#3 343119763#4 343119763#5 343119763#6 343119763#7 343119763#8 54225355 391086653#0 391086653#1 391086653#2 391086653#3 200573235#0 200573235#1 200573235#2 200573235#3"/>
    </vehicle>
    <vehicle id="6" depart="6.00">
        <route edges="-1348846195 -1060532520 52774235#0 52774235#1 52774235#2 1107981337 -1115117212#1 -1115117212#0 -53091316 -23951713#4 -23951713#3 -23951713#2 -23951713#1 -23951713#0 -50732593#4 -50732593#3 -50732593#2 -50732593#1 -50732593#0 -359947711 -310937067 1109884434 359945311#0 359945311#1 359945311#2 359945311#3 53841328#0 53841328#1 53841328#2 359945309#0 359945309#1 359945309#2 359945310 1120006849#0 1120006849#1 839348507 119971339 1104565427#1 1104565427#2 1141512439 194100157#0 1110305858 112452773#0 112452773#1 112452773#2 467592508#0 467592508#1 467592508#2 1089605515 1089605513 1089605514 119971341#0 119971341#1 -467592567 -390001790#23 -390001790#22 -390001790#21 -390001790#20 -390001790#19 -390001790#18 -390001790#17 -393272861"/>
    </vehicle>
    <vehicle id="7" depart="7.00">
        <route edges="-477647320 -389274955#17 -389274955#16 -389274955#15 -389274955#14 -389274955#13 -389274955#12 -389274955#11 -389274955#10 -389274955#9 -389274955#8 -389274955#7 -389274955#6 -389274955#5 -389274955#4 -389274955#3 -389274955#2 -389274955#1 -389274955#0 -941526159 389274953#0 389274953#1 389274953#2 385397105 196287359#0 196287359#1 196287359#2 196287359#3 196287359#4 196287359#5 196287359#6 196287359#7 196287359#8 424607775#0 424607775#1 424607775#2 424607775#3 1159086616 925078220#0 925078220#1 925078220#2 925078220#3 343116285#0 343116285#1 343116285#2 343116285#3 343116285#4 343116285#5 343116285#6 1117294925 1117294930 1117294935 1117294939 1117294941#0 1117294941#1 1117294941#2 24563846 386281825#0 386281825#1 386281825#2 386281825#3 386281825#4 386281825#5 386281825#6 386281825#7 386281825#8 386281825#9 386281825#10 386281825#11 386281825#12 386281825#13 311546251 385841804#0 385841804#1 346326711#0 346326711#1 346326711#2 346326711#3 346326711#4 346326711#5 346326711#6 346326711#7 346326711#8 346326711#9 346326711#10 346326711#11 346326711#12 346326711#13 346326711#14 346326711#15 346326711#16 346326711#17 346326711#18 346326711#19 346326711#20 346326711#21 346326711#22"/>
    </vehicle>
    <vehicle id="8" depart="8.00">
        <route edges="50159548#5 1095856769 1141512440#1 1141512440#2 1141512440#3 1113382864#0 1113382864#1 24773533#0 24773533#1 24773533#2 24773533#3 1113382869 119971340#0 119971340#1 386049465#0 386049465#1 386049465#2 1089605518#0 1089605518#1 467592516#0 467592516#1 467592516#2 467592516#3 467592516#4 467592516#5 1104565428 53840881 839348506#0 839348506#1 -52433912 -1097239675#1 -1097239675#0 -839348519#1 -839348519#0 48701746 1105990153 695511480 694735316#0 694735316#1 694735316#2 1117292683 48588844#6 48588844#7 48588844#0 48702707 317497968 -1105981047"/>
    </vehicle>
    <vehicle id="9" depart="9.00">
        <route edges="50002945#0 50002945#1 50002945#2 48731367 1034973641 13858379#0 13858379#1 13858379#2 13858379#3 13858379#4 13858379#5 13858379#6 13858379#7 390003247#0 390003247#1 390003247#2 390003247#3"/>
    </vehicle>
    <vehicle id="10" depart="10.00">
        <route edges="-553273001 48731538#1 48731538#2 48731538#3 48731538#4 48731538#5 391086649 940233622#2 940233622#3 940233622#4 940233622#5 940233622#6 940233622#7 940233622#8 940233622#9 309917891 1117294941#0 1117294941#1 1117294941#2 24563846 386281825#0 386281825#1 386281825#2 386281825#3 386281825#4 386281825#5 386281825#6 386281825#7 386281825#8 386281825#9 386281825#10 386281825#11 386281825#12 386281825#13 311546251 385841804#0 385841804#1 346326711#0 -346326711#0 -385841804#1"/>
    </vehicle>
    <vehicle id="11" depart="11.00">
        <route edges="687607144 -129478361#0 -129478360 -50633738 50633737#1 -343119763#9 -343119763#8 -343119763#7 -343119763#6 -343119763#5 -343119763#4 -343119763#3 -343119763#2 -343119763#1 343119762#0 343119762#1 343119762#2 343119762#3 377061460#0 377061460#1 -377061444 -54225363#9 -54225363#8 -54225363#7 -54225363#6 -54225363#5 -54225363#4"/>
    </vehicle>
    <vehicle id="12" depart="12.00">
        <route edges="51914527#3 393277184#0 393277184#1 366602634#0 366602634#1 48726959#0 48726959#1 48726959#2 48726959#3 48726959#4 48726959#5 48726959#6 48726959#7 48726959#8 48726959#9 51982426 1129892798 385397101#0 385397101#1 385397101#2 1117292687#0 1117292687#1 350014237#0 350014237#1 350014237#2 350014237#3 350014237#4 350014237#5 350014237#6 350014237#7 350014237#8 350014237#9 350014237#10 350014237#11 350014237#12"/>
    </vehicle>
    <vehicle id="13" depart="13.00">
        <route edges="50002945#2 48731368#0 48731368#1 48731368#2 48731370 24791500#11 24791500#12 24791500#13 1117292688#0 1117292688#1 309708097#0 309708097#1 309708096#0 309708096#1 309708096#2 309708096#3 309708096#4 309708096#5 309708096#6 309708096#7 309708096#8 309708096#9 309708096#10 309708096#11 309708096#12 309708096#13 940233622#0 940233622#1 940233622#2 940233622#3 940233622#4 940233622#5 940233622#6 940233622#7 940233622#8 940233622#9 1117294927 1117294937 1117294931 1117294940 1117292693 925078187#0 925078187#1 23811054#0 23811054#1 98963861 98963843#0 98963843#1 340573196 816466882#0 -351661202 -418989093 -53195174 53195174 418989093"/>
    </vehicle>
    <vehicle id="14" depart="14.00">
        <route edges="24790517#0 -24790517#0 -18599172#1 -18599172#0 24745879#0 24745879#1 24745879#2 24745879#3 1148102167 144905255#0 144905255#1 144905255#2 1141512440#0 1141512440#1 1141512440#2 1141512440#3 1113382864#0 1113382864#1 24773533#0 24773533#1 24773533#2 24773533#3 24773533#4 1148102169#0 1148102169#1 1113382867 24775231#0 24775231#1 24775231#2 24775231#3 24775231#4 -389274955#25 -389274955#24 -389274955#23 -389274955#22 -389274955#21 -389274955#20 -389274955#19 -389274955#18 -389274955#17 -389274955#16 -389274955#15 -389274955#14 -389274955#13 -389274955#12 -389274955#11 -389274955#10 -389274955#9 -389274955#8 -389274955#7 -389274955#6 -389274955#5 -389274955#4 -389274955#3 -389274955#2 -389274955#1 -389274955#0 -941526159 389274953#0 389274953#1 389274953#2 385397105 196287359#0 196287359#1 196287359#2 196287359#3 196287359#4 196287359#5 196287359#6 196287359#7 196287359#8 424607775#0 424607775#1 424607775#2 424607775#3 1159086616 925078220#0 925078220#1 925078220#2 925078220#3 343116285#0 343116285#1 343116285#2 343116285#3 343116285#4 343116285#5 343116285#6 1117292692 1006049762 1117292693 925078187#0 925078187#1 23811054#0 23811054#1 98963861 98963843#0 98963843#1 360011380#0 360011380#1 475476943 475476947 475476946 816466883"/>
    </vehicle>
    <vehicle id="15" depart="15.00">
        <route edges="-925078218 -351661197#0 -50061199 98963855 98963910#0 98963910#1 98963910#2 83618538 1117294944#0 1117294944#1 1117294944#2 1117294944#3 1117294944#4 1117294944#5 1117294944#6 925078219#0 925078219#1 925078219#2 1159086613 366602634#0 366602634#1 48726959#0 48726959#1 48726959#2 48726959#3 48726959#4 48726959#5 48726959#6 48726959#7 48726959#8 48726959#9 51982426 385397103#0 385397103#1 941526159 389274955#0 389274955#1 389274955#2 389274955#3 389274955#4 389274955#5 389274955#6 389274955#7 389274955#8 389274955#9 389274955#10 389274955#11 389274955#12 389274955#13 389274955#14 389274955#15 389274955#16 389274955#17 389274955#18 389274955#19 389274955#20 389274955#21 389274955#22 389274955#23 389274955#24 389274955#25 939306291#0 939306291#1 939306291#2 939306291#3 939306291#4 939306291#5 1113382866 1148102168#1 1148102168#2 1148102168#3 24773533#0 1113382871 112452775#0 112452775#1 112452775#2 112452775#3 112452775#4 112452775#5 112452775#6 1109888116#0 1109888116#1 112452772#1 112656145 194099277 1109884449 48678604 1109884535 1113239579 18598993#0 18598993#1 18598993#2 18598993#3 18598993#4 18598993#5 18598993#6 18598993#7 23169384 1140689916 669745112#0 669745112#1 -1038163783 46940752#0 46940752#1 372921056#6 372921056#7 372921056#0 372921056#1 306675158#0"/>
    </vehicle>
    <vehicle id="16" depart="16.00">
        <route edges="51189381#0 528803181#1 528803181#2 23951712#0 23951712#1 23951712#2 23951712#3 23951712#4 -50732593#7 -50732593#6 -50732593#5 -50732593#4 -50732593#3 -50732593#2 -50732593#1 -50732593#0 -359947711 -310937067 1109884434 359945311#0 359945311#1 359945311#2 359945311#3 48890990 194099239#0 194099239#1 194099239#2 112452777 48677467#0 48677467#1 48677467#2 48677467#3 48677467#4 48677467#5 48677467#6 48677467#7 1113382870 24773533#3 24773533#4 1148102169#0 1148102169#1 1113382867 24775231#0 24775231#1 24775231#2 24775231#3 24775231#4 -389274955#25 -389274955#24 -389274955#23 -389274955#22 -389274955#21 -389274955#20 -389274955#19 -389274955#18 -389274955#17 -389274955#16 -389274955#15 -389274955#14 -389274955#13 -389274955#12 -389274955#11 -389274955#10 -389274955#9 -389274955#8 -389274955#7 -389274955#6 -389274955#5 -389274955#4 -389274955#3 -389274955#2 -389274955#1 -389274955#0 -941526159 389274953#0 389274953#1 389274953#2 385397105 196287359#0 196287359#1 196287359#2 196287359#3 196287359#4 196287359#5 196287359#6 200540875 352006250"/>
    </vehicle>
    <vehicle id="17" depart="17.00">
        <route edges="53090913#2 -50732593#0 -359947711 -310937067 1109884434 359945311#0 359945311#1 359945311#2 359945311#3 48890990 194099239#0 194099239#1 194099239#2 112452777 48677467#0 48677467#1 48677467#2 48677467#3 48677467#4 48677467#5 48677467#6 48677467#7 1113382870 24773533#3 24773533#4 1148102169#0 1148102169#1 1113382867 24775231#0 24775231#1 24775231#2 24775231#3 24775231#4 -389274955#25 -389274955#24 -389274955#23 -389274955#22 -389274955#21 -389274955#20 -389274955#19 -389274955#18 -389274955#17 -389274955#16 -389274955#15 -389274955#14 -389274955#13 -389274955#12 -389274955#11 -389274955#10 -389274955#9 -389274955#8 -389274955#7 -389274955#6 -389274955#5 -389274955#4 -389274955#3 -389274955#2 -389274955#1 -389274955#0 -941526159 389274953#0 389274953#1 389274953#2 385397105 196287359#0 196287359#1 196287359#2 196287359#3 196287359#4 196287359#5 196287359#6 196287359#7 196287359#8 424607775#0 424607775#1 424607775#2 424607775#3 1159086616 925078220#0 925078220#1 925078220#2 925078220#3 343116285#0 343116285#1 343116285#2 343116285#3 343116285#4 343116285#5 343116285#6 1117294925 1117294930 1117294935 1117294939 1117294941#0 1117294941#1 1117294941#2 24563846 386281825#0 386281825#1 -346332317 -343119763#14 -343119763#13 -343119763#12 -343119763#11 -343119763#10 -343119763#9 -343119763#8 -343119763#7 -343119763#6 -343119763#5 -343119763#4 -343119763#3 -343119763#2 -343119763#1 -343119763#0 343119763#0 343119763#1 343119763#2"/>
    </vehicle>
    <vehicle id="18" depart="18.00">
        <route edges="391086660#0 391086660#1 1116740485 1116740486#0 1116740486#1 1116740484#0 1116740484#1 1116740487#0 98963910#2 83618538 1117294944#0 1117294944#1 1117294944#2 1117294944#3 1117294944#4 1117294944#5 1117294944#6 925078219#0 925078219#1 925078219#2 1159086613 366602634#0 366602634#1 48726959#0 48726959#1 48726959#2 48726959#3 48726959#4 48726959#5 48726959#6 48726959#7 48726959#8 48726959#9 51982426 385397103#0 385397103#1 941526159 389274955#0 389274955#1 389274955#2 389274955#3 389274955#4 389274955#5 389274955#6 389274955#7 389274955#8 389274955#9 389274955#10 389274955#11 389274955#12 389274955#13 389274955#14 389274955#15 389274955#16 389274955#17 389274955#18 389274955#19 389274955#20 389274955#21 389274955#22 389274955#23 389274955#24 389274955#25 939306291#0 939306291#1 939306291#2 939306291#3 939306291#4 939306291#5 1113382866 1148102168#1 1148102168#2 1148102168#3 24773533#0 1113382871 112452775#0 112452775#1 112452775#2 112452775#3 112452775#4 112452775#5 112452775#6 1109888116#0 1109888116#1 112452772#1 112656145 194099277 1109884449 48678604 694737781#0 694737781#1 -310937069 -18599172#10 -18599172#9 -18599172#8 -18599172#7 -18599172#6 -18599172#5 -18599172#4 -18599172#3 -18599172#2 -18599172#1 -18599172#0"/>
    </vehicle>
    <vehicle id="19" depart="19.00">
        <route edges="-48730299#0 -346326711#8 -346326711#7 -346326711#6 -346326711#5 -346326711#4 -346326711#3 -346326711#2 -346326711#1 -346326711#0 -385841804#1 -385841804#0 -311546251 34698632 1117294917#7 1117294917#8 1117294917#9 1117294917#10 309917887#0 309917887#1 309917887#2 309917887#3 309917887#4 309917887#5 309917887#6 309917887#7 309917887#8 309917894 309917893#0 309917893#1 1117294926#0 1117294928 1117294932 1117294934 1117294944#0 1117294944#1 1117294944#2 1117294944#3 1117294944#4 1117294944#5 1117294944#6 925078219#0 925078219#1 925078219#2 1159086613 366602634#0 366602634#1 48726959#0 48726959#1 48726959#2 48726959#3 48726959#4 48726959#5 48726959#6 48726959#7 48726959#8 48726959#9 51982426 385397103#0 385397103#1 941526159 389274955#0 389274955#1 389274955#2 389274955#3 389274955#4 389274955#5 389274955#6 389274955#7 389274955#8 389274955#9 389274955#10 389274955#11 389274955#12 389274955#13 389274955#14 389274955#15 389274955#16 389274955#17 389274955#18 389274955#19 389274955#20 389274955#21 389274955#22 389274955#23 389274955#24 389274955#25 939306291#0 939306291#1 939306291#2 939306291#3 939306291#4 939306291#5 1113382866 1148102168#1 1148102168#2 1148102168#3 24773533#0 1113382871 112452775#0 112452775#1 112452775#2 112452775#3 112452775#4 112452775#5 112452775#6 1109888116#0 1109888116#1 112452772#1 112656145 194099277 1109884449 48678604 1109884535 24793835#0 24793835#1 310937067 359947711 50732593#0 50732593#1 50732593#2 50732593#3 50732593#4 23951713#0 23951713#1 23951713#2 23951713#3 23951713#4 53091316 -53091316"/>
    </vehicle>
    <vehicle id="20" depart="20.00">
        <route edges="-24773528#1 -24773528#0 694735315#0 694735315#1 48701745 -48701746 839348519#0 839348519#1 1097239675#0 1097239675#1 1120006849#0 1120006849#1 839348507 119971339 1104565427#1 1104565427#2 1141512439 194100157#0 1110305858 112452773#0 112452773#1 112452773#2 467592508#0 467592508#1 467592508#2 1089605515 1089605513 1089605514 119971341#0 119971341#1 119971341#2 119971341#3 947734336 24775231#0 24775231#1 24775231#2 24775231#3 24775231#4 -389274955#25 -389274955#24 -389274955#23 -389274955#22 -389274955#21 -389274955#20 -389274955#19 -389274955#18 -389274955#17 -389274955#16 -389274955#15 -389274955#14 -389274955#13 -389274955#12 -389274955#11 -389274955#10 -389274955#9 -389274955#8 -389274955#7 -389274955#6 -389274955#5 -389274955#4 -389274955#3 -389274955#2 -389274955#1 -389274955#0 -941526159 389274953#0 389274953#1 389274953#2 385397105 196287359#0 196287359#1 196287359#2 196287359#3 196287359#4 196287359#5 196287359#6 196287359#7 196287359#8 424607775#0 424607775#1 424607775#2 424607775#3 1159086616 925078220#0 925078220#1 925078220#2 925078220#3 343116285#0 343116285#1 343116285#2 343116285#3 343116285#4 343116285#5 343116285#6 1117294925 1117294930 1117294935 1117294939 1117294941#0 1117294941#1 1117294941#2 24563846 386281825#0 386281825#1 386281825#2 386281825#3 386281825#4 386281825#5 386281825#6 386281825#7 386281825#8 386281825#9 386281825#10 386281825#11 386281825#12 386281825#13 386281825#14 386281825#15 386281825#16 386281825#17 386281825#18 230197862#0 230197862#1 391086662#0 391086662#1 391086662#2 48730299#1 -48730297#1 -48730297#0"/>
    </vehicle>
    <vehicle id="21" depart="21.00">
        <route edges="-346326711#16 -346326711#15 -346326711#14 -346326711#13 -346326711#12 -346326711#11 -346326711#10 -346326711#9 -346326711#8 -346326711#7 -346326711#6 -346326711#5 -346326711#4 -346326711#3 -346326711#2 -346326711#1 -346326711#0 -385841804#1 -385841804#0 -311546251 34698632 1117294917#7 1117294917#8 1117294917#9 1117294917#10 309917887#0 309917887#1 309917887#2 309917887#3 309917887#4 309917887#5 309917887#6 309917887#7 309917887#8 309917894 309917893#0 309917893#1 1117294926#0 1117294928 1117294932 1117294934 1117294944#0 1117294944#1 1117294944#2 1117294944#3 1117294944#4 1117294944#5 1117294944#6 925078219#0 925078219#1 925078219#2 1159086613 366602634#0 366602634#1 48726959#0 48726959#1 48726959#2 48726959#3 48726959#4 48726959#5 48726959#6 48726959#7 48726959#8 48726959#9 51982426 385397103#0 385397103#1 941526159 389274955#0 389274955#1 389274955#2 389274955#3 389274955#4 389274955#5 389274955#6 389274955#7 389274955#8 389274955#9 389274955#10 389274955#11 389274955#12 389274955#13 389274955#14 389274955#15 389274955#16 389274955#17 389274955#18 389274955#19 389274955#20 389274955#21 389274955#22 389274955#23 389274955#24 389274955#25 939306291#0 939306291#1 939306291#2 939306291#3 939306291#4 939306291#5 1113382866 1148102168#1 1148102168#2 1148102168#3 24773533#0 1113382871 112452775#0 112452775#1 112452775#2 112452775#3 112452775#4 112452775#5 112452775#6 1109888116#0 1109888116#1 112452772#1 112656145 194099277 1109884449 48678604 694737781#0 694737781#1 -310937069 -18599172#10 -396537099 -52445146#2 -52445146#1"/>
    </vehicle>
    <vehicle id="22" depart="22.00">
        <route edges="376923674 396537100#1 396537100#2 18598993#3 18598993#4 18598993#5 18598993#6 18598993#7 23169386 194099559#0 194099559#1 194099559#2 1301755558 1105413887 1301755557#0 1301755557#1 359947710#0 359947710#1 1109884434 359945311#0 359945311#1 359945311#2 359945311#3 53841328#0 53841328#1 53841328#2 359945309#0 359945309#1 359945309#2 359945310 1120006849#0 1120006849#1 839348507 665917692#0 665917692#1 665917692#2 359945312#0 359945312#1 359945312#2 359945312#3 1141512437#1 194100149#0 48847394#0 48847394#1 48847394#2 48847399#1 48847399#2 310930757#0 310930757#1 308344854#0 308344854#1 311101595#0 311101595#1 311101595#2 311101595#3 311101595#4 311101595#5 311101595#6 311101595#7 311101595#8 311101595#9 311101595#10 311101595#11 311101595#12 311101595#13 311101595#14 311101595#15 311101595#16 311101595#17 311101595#18 311101595#19 552411650#0 552411650#1 552411650#2 552411650#3 552411650#4 552411650#5 -1034973641 -48731367 48731368#0 48731368#1 48731368#2 48731370 24791500#11 24791500#12 24791500#13 1117292688#0 1117292688#1 309708097#0 309708097#1 309708096#0 309708096#1 309708096#2 309708096#3 309708096#4 309708096#5 309708096#6 309708096#7 309708096#8 309708096#9 309708096#10 -391084174 -351660876 -50633782#3 -50633782#2 -50633782#1 -50633782#0 -584930588#3 -584930588#2 -584930588#1"/>
    </vehicle>
    <vehicle id="23" depart="23.00">
        <route edges="-747180279 -50738235#0 915331152#1 915331153#3 915331153#4 915331153#5 915331150 -1070554497 -1070554498 -311103273#6 -311103273#5 -311103273#4 -311103273#3 -311103273#2 -311103273#1 -311103273#0 311103271#0 311103271#1 -391084171 -48731536#1 51193425#4 51193425#5 51193425#6 51193425#7 51193425#8 51193425#9 51193425#10 1117292686 546725501 24255048 50002945#0 50002945#1 50002945#2 48731367 1034973641 13858379#0 13858379#1 13858379#2 -405512603"/>
    </vehicle>
    <vehicle id="24" depart="24.00">
        <route edges="-50738235#1 -50738235#0 915331152#1 915331153#3 915331153#4 915331153#5 915331150 -1070554497 -1070554498 -311103273#6 -311103273#5 -311103273#4 -311103273#3 -311103273#2 -311103273#1 -311103273#0 311103271#0 311103271#1 -391084171 -48731536#1 51193425#4 51193425#5 51193425#6 51193425#7 51193425#8 51193425#9 51193425#10 1117292686 1117292685#0 1117292685#1 1117292685#2 1117292685#3 1117292685#4 1117292685#5 1117292685#6 327263159 385396540#0 385396540#1 385396540#2 385396540#3 1114878574 1121956778 51911939 1121956779 1121956776#0 1121956776#1 309709716#0 309709716#1 -379690186 233499011#0 233499011#1 233499011#2 233499011#3 233499011#4 233499011#5 233499011#6 233499011#7 233499011#8 608461988"/>
    </vehicle>
    <vehicle id="25" depart="25.00">
        <route edges="378848515#0 378848515#1 48891776 376924729 356319069#7 356319069#8 356319069#9 356319069#10 356319069#11 356319069#12 359947709#0 359947709#1 359947709#2 359947709#3 359947709#4 259798301#0 259798301#1 259798301#2 259798301#3 356578615#0 356578615#1 356578615#2 356578615#3 356578615#4 185733519#0 185733519#1 185733519#2 669745112#0 669745112#1 669745111#0 669745111#1 23169388 194099559#0 194099559#1 194099559#2 1301755558 1105413887 1301755557#0 1301755557#1 359947710#0 359947710#1 1109884434 359945311#0 359945311#1 359945311#2 359945311#3 53841328#0 53841328#1 53841328#2 359945309#0 359945309#1 359945309#2 359945310 1120006849#0 1120006849#1 839348507 665917692#0 665917692#1 665917692#2 359945312#0 359945312#1 359945312#2 359945312#3 1141512437#1 194100149#0 48847394#0 48847394#1 48847394#2 48847399#1 48847399#2 310930757#0 310930757#1 308344854#0 308344854#1 311101595#0 311101595#1 311101595#2 -396033083 -366452499#3 -366452499#2 -366452499#1 -366452499#0 350014237#6 350014237#7 350014237#8"/>
    </vehicle>
    <vehicle id="26" depart="26.00">
        <route edges="-389276442 -233499011#12 -233499011#11 -487441125 -356689196 -389274955#12 -389274955#11 -389274955#10 -389274955#9 -389274955#8 -389274955#7 -389274955#6 -389274955#5 -389274955#4 -389274955#3 -389274955#2 -389274955#1 -389274955#0 -941526159 389274953#0 389274953#1 389274953#2 385397105 196287359#0 196287359#1 196287359#2 196287359#3 196287359#4 196287359#5 196287359#6 196287359#7 196287359#8 424607775#0 424607775#1 424607775#2 424607775#3 1159086616 925078220#0 925078220#1 925078220#2 925078220#3 343116285#0 343116285#1 343116285#2 343116285#3 343116285#4 343116285#5 343116285#6 1117292692 1006049762 1117292693 925078187#0 925078187#1 23811054#0 23811054#1 98963861 98963843#0 98963843#1 340573196 816466882#0 -351661202 -418989093 -53195174 53195174 418989093"/>
    </vehicle>
    <vehicle id="27" depart="27.00">
        <route edges="-386048812 -48588707 50061483#2 50061483#3 1089605502 1089605497 1089605501#0 1089605501#1 1089605501#2 1089605501#3 1089605501#4 1109884009 194100149#0 48847394#0 48847394#1 48847394#2 48847399#1 48847399#2 48847399#3 13758915#0 13758915#1 13758915#2 467591926 359934143#0 359934143#1 1089605514 119971341#0 119971341#1 119971341#2 119971341#3 947734336 24775231#0 24775231#1 24775231#2 24775231#3 939306290#0 939306290#1 -487441121 -143399474#2 -143399474#1 -143399474#0 8111662#0 -8111662#0"/>
    </vehicle>
    <vehicle id="28" depart="28.00">
        <route edges="940233622#8 940233622#9 1117294927 1117294937 1117294931 1117294940 1117292693 925078187#0 925078187#1 -1116740487#1 98963910#2 83618538 1117294944#0 1117294944#1 1117294944#2 1117294944#3 1117294944#4 1117294944#5 1117294944#6 925078219#0 925078219#1 925078219#2 1159086613 366602634#0 366602634#1 48726959#0 48726959#1 48726959#2 48726959#3 48726959#4 48726959#5 48726959#6 48726959#7 48726959#8 48726959#9 51982426 385397103#0 385397103#1 941526159 389274955#0 389274955#1 389274955#2 389274955#3 389274955#4 389274955#5 389274955#6 389274955#7 389274955#8 389274955#9 389274955#10 389274955#11 389274955#12 389274955#13 389274955#14 389274955#15 389274955#16 389274955#17 389274955#18 389274955#19 389274955#20 389274955#21 389274955#22 389274955#23 389274955#24 389274955#25 939306291#0 939306291#1 939306291#2 939306291#3 939306291#4 939306291#5 1113382866 1148102168#1 1148102168#2 1148102168#3 24773533#0 1113382871 112452775#0 112452775#1 112452775#2 112452775#3 112452775#4 112452775#5 112452775#6 1109888116#0 1109888116#1 112452772#1 112656145 194099277 1109884449 48678604 1109884535 1113239579 18598993#0 18598993#1 18598993#2 18598993#3 18598993#4 18598993#5 18598993#6 18598993#7 23169386 194099559#0 -773153833#1 -773153833#0 52447002#1 -206092104 -52446999#1 -52446997#1 376594232"/>
    </vehicle>
    <vehicle id="29" depart="29.00">
        <route edges="309917887#3 309917887#4 309917887#5 309917887#6 309917887#7 309917887#8 309917894 309917893#0 309917893#1 1117294926#0 1117294928 1117294932 1117294934 1117294944#0 1117294944#1 1117294944#2 1117294944#3 1117294944#4 1117294944#5 1117294944#6 925078219#0 925078219#1 925078219#2 1159086613 366602634#0 366602634#1 48726959#0 48726959#1 48726959#2 48726959#3 48726959#4 48726959#5 48726959#6 48726959#7 48726959#8 48726959#9 51982426 385397103#0 385397103#1 941526159 389274952#0"/>
    </vehicle>
    <vehicle id="30" depart="30.00">