<?xml version="1.0" encoding="UTF-8"?>

<!-- generated on 2025-10-24 12:00:01 by Eclipse SUMO polyconvert Version 1.24.0
<polyconvertConfiguration xmlns:xsi="http://www.w3.org/2001/XMLSchema-instance" xsi:noNamespaceSchemaLocation="http://sumo.dlr.de/xsd/polyconvertConfiguration.xsd">

    <input>
        <net-file value="test.net.xml"/>
        <osm-files value="map.osm"/>
        <type-file value="typemap.xml"/>
    </input>

    <output>
        <output-file value="map.poly.xml"/>
    </output>

    <report>
        <xml-validation value="never"/>
    </report>

</polyconvertConfiguration>
-->

<additional xmlns:xsi="http://www.w3.org/2001/XMLSchema-instance" xsi:noNamespaceSchemaLocation="http://sumo.dlr.de/xsd/additional_file.xsd">
    <location netOffset="-372558.02,-760524.24" convBoundary="-547.46,0.00,8211.54,6150.86" origBoundary="79.841464,6.879004,79.920807,6.934694" projParameter="+proj=utm +zone=44 +ellps=WGS84 +datum=WGS84 +units=m +no_defs"/>

    <poly id="1013492084" type="building" color="255,230,230" fill="1" layer="-1.00" shape="3021.003587,3141.025625 3031.663219,3149.082916 3040.453522,3137.607333 3029.793889,3129.550041 3021.003587,3141.025625"/>
    <poly id="1020253342" type="parking" color="184,184,179" fill="1" layer="-1.00" shape="5319.851584,4431.948593 5332.549740,4433.146370 5329.637132,4463.536914 5326.329775,4495.222009 5312.990380,4493.848820 5313.433416,4489.557796 5319.678090,4433.364252 5319.851584,4431.948593"/>
    <poly id="1020253344" type="building" color="255,230,230" fill="1" layer="-1.00" shape="5193.402720,4492.225227 5196.618441,4492.416764 5196.416383,4495.800582 5193.200663,4495.609045 5193.402720,4492.225227"/>
    <poly id="1020253344#1" type="building" color="255,230,230" fill="1" layer="-1.00" shape="5193.402720,4492.225227 5196.618441,4492.416764 5196.416383,4495.800582 5193.200663,4495.609045 5193.402720,4492.225227"/>
    <poly id="1020253346" type="leisure" color="207,245,201" fill="1" layer="-2.00" shape="5271.367246,4412.490980 5231.245400,4392.339495 5195.084319,4402.927477 5194.501230,4408.755710 5196.854952,4408.871857 5271.367246,4412.490980"/>
    <poly id="1020253350" type="building" color="255,230,230" fill="1" layer="-1.00" shape="5313.433416,4489.557796 5309.786298,4489.157177 5316.030968,4432.963633 5319.678090,4433.364252 5313.433416,4489.557796"/>
    <poly id="1020253352" type="building" color="255,230,230" fill="1" layer="-1.00" shape="5216.565642,4498.739004 5217.066166,4490.666455 5261.180250,4493.361178 5260.679746,4501.444782 5216.565642,4498.739004"/>
    <poly id="1020253355" type="leisure" color="207,245,201" fill="1" layer="-2.00" shape="5316.125654,4430.917926 5316.492273,4427.025120 5316.869915,4423.121231 5335.127007,4424.858922 5334.371694,4432.655641 5316.125654,4430.917926"/>
    <poly id="1023346387" type="building" color="255,230,230" fill="1" layer="-1.00" shape="3154.315513,3295.737386 3154.303707,3295.416768 3153.866048,3283.211143 3177.200376,3282.382057 3177.649836,3294.908299 3163.430492,3295.417323 3154.315513,3295.737386"/>
    <poly id="1023346388" type="building" color="255,230,230" fill="1" layer="-1.00" shape="3120.246128,3331.387463 3129.140377,3331.178482 3129.080583,3324.577740 3128.267787,3298.574168 3128.257285,3294.129376 3119.363030,3294.338356 3120.246128,3331.387463"/>
    <poly id="1023346389" type="building" color="255,230,230" fill="1" layer="-1.00" shape="3265.302511,3317.467213 3265.152122,3309.926863 3287.062011,3309.499228 3287.212370,3317.028521 3265.302511,3317.467213"/>
    <poly id="1023550480" type="building" color="255,230,230" fill="1" layer="-1.00" shape="1753.732224,4153.291205 1767.547709,4131.830073 1775.083704,4136.621765 1780.026442,4128.936523 1795.131577,4138.519832 1792.731763,4142.251713 1798.851291,4146.140136 1783.329575,4170.281085 1774.908329,4164.938669 1779.366697,4158.006447 1766.198131,4149.656875 1760.936188,4157.851495 1753.732224,4153.291205"/>
    <poly id="1023562789" type="unknown" color="51,128,255" fill="0" layer="-1.00" shape="1411.160704,3447.757772 1443.059866,3424.495215"/>
    <poly id="1023562790" type="parking" color="184,184,179" fill="1" layer="-1.00" shape="1390.616768,3460.301199 1401.507650,3467.926421 1411.160704,3447.757772 1443.059866,3424.495215 1481.589008,3401.360546 1475.641062,3390.727075 1452.558148,3404.282721 1439.737395,3412.075311 1406.872347,3438.038046 1403.796362,3440.875961 1390.616768,3460.301199"/>
    <poly id="1023562791" type="parking" color="184,184,179" fill="1" layer="-1.00" shape="1401.507650,3467.926421 1414.015471,3472.496089 1446.997731,3458.573947 1451.686185,3450.811890 1443.059866,3424.495215 1411.160704,3447.757772 1401.507650,3467.926421"/>
    <poly id="1025135715" type="amenity" color="237,199,199" fill="1" layer="-1.00" shape="2031.836595,4419.714895 2070.412644,4439.646688 2125.289467,4335.880409 2054.661891,4298.367334 2031.836595,4419.714895"/>
    <poly id="1025151227" type="building" color="255,230,230" fill="1" layer="-1.00" shape="1915.849761,4297.969006 1905.199445,4279.938689 1970.246805,4247.818118 1991.108564,4262.053697 1915.849761,4297.969006"/>
    <poly id="1025151228" type="building" color="255,230,230" fill="1" layer="-1.00" shape="1990.511962,4326.870086 2003.830830,4356.558968 2025.010754,4346.723140 2011.690129,4316.293453 1990.511962,4326.870086"/>
    <poly id="1025791099" type="amenity" color="237,199,199" fill="1" layer="-1.00" shape="2991.364168,3344.518004 2989.626414,3296.535769 3030.179440,3208.505451 3072.090635,3227.556684 3179.165591,3174.098615 3232.919242,3220.199997 3265.174051,3202.167706 3280.658152,3213.187920 3283.104175,3214.929116 3289.103031,3219.204981 3317.282081,3239.261789 3287.590057,3280.418726 3325.549445,3291.817134 3327.037509,3332.447180 3259.730514,3334.872635 3145.867147,3339.696893 2991.364168,3344.518004"/>
    <poly id="1025791100" type="building" color="255,230,230" fill="0" layer="-1.00" shape="2339.546478,3566.038603 2363.069353,3565.540387 2362.863852,3553.466867"/>
    <poly id="1025791101" type="amenity" color="237,199,199" fill="1" layer="-1.00" shape="2341.232453,3582.697168 2359.671942,3581.912508 2359.133935,3569.408564 2340.683393,3570.193250 2341.232453,3582.697168"/>
    <poly id="1025791101#1" type="building" color="255,230,230" fill="1" layer="-1.00" shape="2341.232453,3582.697168 2359.671942,3581.912508 2359.133935,3569.408564 2340.683393,3570.193250 2341.232453,3582.697168"/>
    <poly id="1026138112" type="building" color="255,230,230" fill="1" layer="-1.00" shape="726.041667,3227.581286 753.145630,3236.593690 770.069160,3184.331498 760.039777,3181.215499 744.857138,3226.839399 738.344828,3225.108099 753.005186,3178.258144 742.799861,3175.496390 726.041667,3227.581286"/>
    <poly id="1026278656" type="leisure" color="207,245,201" fill="1" layer="-2.00" shape="3077.743073,3290.953835 3077.653900,3271.925364 3110.403931,3271.781627 3110.493066,3290.799039 3077.743073,3290.953835"/>
    <poly id="1026278656#1" type="sport" color="79,230,125" fill="1" layer="-2.00" shape="3077.743073,3290.953835 3077.653900,3271.925364 3110.403931,3271.781627 3110.493066,3290.799039 3077.743073,3290.953835"/>
    <poly id="1026278657" type="leisure" color="207,245,201" fill="1" layer="-2.00" shape="3111.138697,3269.435858 3130.961283,3269.433250 3130.955589,3234.283834 3111.121940,3234.286466 3111.138697,3269.435858"/>
    <poly id="1026278657#1" type="sport" color="79,230,125" fill="1" layer="-2.00" shape="3111.138697,3269.435858 3130.961283,3269.433250 3130.955589,3234.283834 3111.121940,3234.286466 3111.138697,3269.435858"/>
    <poly id="1026278658" type="leisure" color="207,245,201" fill="1" layer="-2.00" shape="3292.065621,3257.244272 3293.905535,3254.984353 3298.588292,3258.743657 3301.309596,3255.398098 3302.892648,3256.665890 3317.049993,3239.240223 3313.297153,3236.230583 3314.850569,3234.303044 3293.407338,3217.105100 3284.835798,3227.651351 3278.027524,3222.183266 3266.316036,3236.595736 3292.065621,3257.244272"/>
    <poly id="1026278658#1" type="sport" color="79,230,125" fill="1" layer="-2.00" shape="3292.065621,3257.244272 3293.905535,3254.984353 3298.588292,3258.743657 3301.309596,3255.398098 3302.892648,3256.665890 3317.049993,3239.240223 3313.297153,3236.230583 3314.850569,3234.303044 3293.407338,3217.105100 3284.835798,3227.651351 3278.027524,3222.183266 3266.316036,3236.595736 3292.065621,3257.244272"/>
    <poly id="1026598882" type="amenity" color="237,199,199" fill="1" layer="-1.00" shape="3385.716393,3588.327806 3396.136550,3597.977884 3409.959446,3584.013781 3399.373160,3574.198241 3385.716393,3588.327806"/>
    <poly id="1026598883" type="building" color="255,230,230" fill="1" layer="-1.00" shape="3445.040175,3485.238541 3517.324064,3484.902349 3518.725898,3451.463452 3444.469539,3454.093031 3444.002318,3462.132387 3439.870647,3462.462772 3439.068457,3469.021314 3439.240374,3471.641358 3440.237285,3477.377459 3444.527893,3478.848949 3445.040175,3485.238541"/>
    <poly id="1026598883#1" type="shop" color="237,199,255" fill="1" layer="-1.00" shape="3445.040175,3485.238541 3517.324064,3484.902349 3518.725898,3451.463452 3444.469539,3454.093031 3444.002318,3462.132387 3439.870647,3462.462772 3439.068457,3469.021314 3439.240374,3471.641358 3440.237285,3477.377459 3444.527893,3478.848949 3445.040175,3485.238541"/>
    <poly id="1026598884" type="building" color="255,230,230" fill="1" layer="-1.00" shape="3442.701662,3533.783173 3461.539754,3533.362837 3460.934621,3506.330519 3443.764879,3506.713750 3444.110462,3522.070757 3442.442102,3522.107860 3442.701662,3533.783173"/>
    <poly id="1026645573" type="building" color="255,230,230" fill="1" layer="-1.00" shape="3443.860828,3359.913099 3448.867043,3360.277230 3452.570718,3361.186211 3454.614837,3361.181394 3456.460928,3361.541916 3458.684858,3362.819257 3459.064442,3364.476875 3459.256188,3366.134935 3444.252114,3366.535168 3443.860828,3359.913099"/>
    <poly id="1026645574" type="building" color="255,230,230" fill="1" layer="-1.00" shape="3485.605519,3388.153166 3485.210986,3375.460952 3493.550379,3378.935236 3493.571609,3387.946432 3485.605519,3388.153166"/>
    <poly id="1026645575" type="building" color="255,230,230" fill="1" layer="-1.00" shape="3691.315701,3540.406662 3711.390591,3539.684974 3710.741112,3521.929381 3690.666215,3522.651068 3691.315701,3540.406662"/>
    <poly id="1026645580" type="landuse" color="194,194,130" fill="1" layer="-3.00" shape="1848.947827,4099.592875 1808.936697,4052.619674 1776.556036,4077.707576 1776.174548,4079.897736 1776.182875,4083.380610 1776.574831,4085.568921 1776.837897,4089.305493 1777.751941,4092.653520 1778.544444,4096.001838 1779.592029,4099.747591 1781.154274,4101.546115 1783.888341,4103.596145 1786.876883,4105.789304 1788.437885,4107.068162 1792.587199,4109.512854 1795.840287,4111.440018 1799.867108,4113.486958 1802.080646,4115.029619 1806.762143,4118.235959 1809.871907,4120.296149 1814.940442,4123.634246 1816.766650,4124.923527 1848.947827,4099.592875"/>
    <poly id="1026645581" type="landuse" color="194,194,130" fill="1" layer="-3.00" shape="1839.167284,4075.656150 1837.100820,4075.550520 1817.130606,4050.676206 1816.674576,4049.416820 1816.891993,4047.923632 1851.007502,4018.243043 1852.573557,4017.011996 1861.129326,4027.782996 1862.602304,4029.216862 1874.471209,4043.927227 1876.344705,4046.510043 1839.167284,4075.656150"/>
    <poly id="1026645582" type="landuse" color="194,194,130" fill="1" layer="-3.00" shape="1854.866694,4014.872554 1871.849827,4001.165773 1893.603094,4027.771765 1876.619966,4041.478540 1854.866694,4014.872554"/>
    <poly id="1026645583" type="landuse" color="194,194,130" fill="1" layer="-3.00" shape="1898.676237,4028.412000 1900.972570,4027.610426 1935.310726,3998.603835 1935.648870,3996.767599 1934.836021,3994.149078 1912.563770,3967.676990 1911.645048,3966.993662 1910.031863,3966.997515 1872.923881,3997.492348 1898.676237,4028.412000"/>
    <poly id="1026645584" type="landuse" color="194,194,130" fill="1" layer="-3.00" shape="1917.931986,3962.323737 1996.470047,3897.409764 2001.262747,3896.281592 2005.495261,3896.547913 2009.168959,3898.783679 2010.307350,3903.546443 2011.875395,3967.981722 1957.542263,4012.659238 1917.931986,3962.323737"/>
    <poly id="1026645586" type="landuse" color="194,194,130" fill="1" layer="-3.00" shape="1835.209031,3982.080813 1837.160066,3980.119096 1828.494084,3969.469987 1827.579800,3970.644193 1826.401259,3972.206018 1825.619565,3973.379907 1824.573932,3975.074097 1823.649602,3976.668486 1823.276043,3977.553923 1835.209031,3982.080813"/>
    <poly id="1026645587" type="landuse" color="194,194,130" fill="1" layer="-3.00" shape="1840.256918,3976.772542 1842.929005,3976.003238 1840.543266,3962.508580 1839.174563,3963.097861 1837.386492,3963.898223 1836.128440,3964.553580 1834.384988,3965.530745 1832.829215,3966.441120 1832.035150,3967.062199 1840.256918,3976.772542"/>
    <poly id="1026645588" type="landuse" color="194,194,130" fill="1" layer="-3.00" shape="1834.633594,3986.339057 1834.884213,3984.867903 1822.830793,3980.805688 1822.711682,3981.823198 1822.538409,3983.294168 1822.419985,3984.599153 1822.335423,3986.202592 1822.338646,3987.551515 1822.342081,3988.988891 1822.345991,3990.625289 1822.560762,3992.648171 1822.652168,3993.908429 1822.952821,3994.880709 1823.419715,3996.062671 1834.633594,3986.339057"/>
    <poly id="1026645589" type="landuse" color="194,194,130" fill="1" layer="-3.00" shape="1846.232932,3976.083799 1847.329261,3977.109462 1857.398758,3969.367757 1856.623728,3968.706200 1855.472338,3967.758065 1855.273055,3967.592689 1854.453828,3966.931238 1853.147749,3965.983473 1852.018933,3965.234307 1850.812692,3964.452156 1849.429374,3963.548803 1847.615031,3962.602252 1846.508603,3961.974658 1845.524536,3961.689532 1844.286389,3961.427127 1846.232932,3976.083799"/>
    <poly id="1026645590" type="landuse" color="194,194,130" fill="1" layer="-3.00" shape="1827.305678,3999.270916 1838.378109,3990.465355 1838.276844,3989.702678 1837.455609,3988.200914 1836.892152,3988.224374 1825.842822,3997.450038 1825.446081,3997.882202 1825.547849,3998.854958 1826.632891,3999.781136 1827.305678,3999.270916"/>
    <poly id="1026645591" type="landuse" color="194,194,130" fill="1" layer="-3.00" shape="1851.214430,3979.986006 1862.586123,3971.566725 1862.518005,3970.803969 1861.740889,3969.268929 1861.188428,3969.270249 1849.817765,3978.120743 1849.398872,3978.530845 1849.467492,3979.503680 1850.519492,3980.474166 1851.214430,3979.986006"/>
    <poly id="1026645592" type="water" color="181,209,209" fill="1" layer="-4.00" shape="1816.840344,3956.959417 1818.817283,3956.589818 1820.560708,3955.601597 1821.883022,3954.094711 1822.641032,3952.257470 1822.757791,3950.255910 1822.211809,3948.344387 1821.058753,3946.699678 1819.431716,3945.531545 1817.518774,3944.939049 1815.507974,3945.010195 1813.752680,3945.655684 1812.120539,3946.975344 1811.129888,3948.558835 1810.659421,3950.505957 1810.851988,3952.484665 1811.685039,3954.307047 1813.069653,3955.752179 1814.850771,3956.665638 1816.840344,3956.959417"/>
    <poly id="1026645593" type="tourism" color="207,245,201" fill="1" layer="-2.00" shape="1814.387453,3947.732846 1813.461564,3948.674888 1812.900934,3949.881419 1812.793586,3951.197435 1813.139177,3952.479199 1813.904163,3953.560938 1814.878185,3954.266246 1816.028202,3954.639429 1817.232594,3954.647608 1818.380841,3954.279989 1819.351508,3953.581091 1820.067409,3952.617438 1820.451437,3951.488726 1820.470682,3950.294545 1820.103309,3949.145515 1819.316278,3948.085943 1818.209586,3947.347782 1816.916034,3947.019168 1815.590444,3947.155018 1814.387453,3947.732846"/>
    <poly id="1026645597" type="water" color="181,209,209" fill="1" layer="-4.00" shape="1795.843566,3927.908084 1796.596922,3928.746601 1797.725793,3929.517879 1798.697861,3929.404988 1799.337395,3928.850619 1799.599775,3927.677971 1799.243452,3926.528914 1798.666857,3925.678918 1765.665253,3885.179319 1764.779093,3884.252666 1764.081564,3883.657265 1763.152662,3883.338838 1761.671932,3883.287094 1760.910301,3883.609562 1760.569228,3884.218502 1760.173359,3885.015538 1760.285410,3885.667622 1761.083810,3886.859849 1761.615548,3887.433531 1795.843566,3927.908084"/>
    <poly id="1026645602" type="water" color="181,209,209" fill="1" layer="-4.00" shape="1739.649077,3859.512324 1739.463804,3860.585277 1739.643156,3861.657359 1740.142672,3862.618107 1740.984318,3863.412185 1742.035106,3863.874058 1743.184466,3863.970822 1744.299725,3863.669622 1745.259476,3863.026032 1745.931260,3862.095654 1746.260094,3860.989187 1746.202098,3859.839418 1745.757591,3858.779027 1745.037460,3857.973602 1744.085930,3857.434093 1743.013625,3857.215521 1741.931090,3857.339734 1740.948817,3857.806468 1740.155043,3858.549172 1739.649077,3859.512324"/>
    <poly id="1026651484" type="landuse" color="194,194,130" fill="1" layer="-3.00" shape="2026.482951,4241.359385 2023.431986,4240.780656 2020.721328,4239.272344 2018.572039,4236.867092 2017.349534,4233.895730 2017.187219,4230.700703 2018.096936,4227.613684 2019.991216,4225.021872 2022.638634,4223.180125 2025.752491,4222.332377 2028.979373,4222.545812 2031.844007,4223.755224 2034.169238,4225.806239 2035.711456,4228.478304 2036.315366,4231.517483 2035.913856,4234.581174 2034.539335,4237.359711 2032.345751,4239.543135 2029.564663,4240.931872 2026.482951,4241.359385"/>
    <poly id="1026682891" type="building" color="255,230,230" fill="1" layer="-1.00" shape="1057.314687,4036.354657 1088.612386,4043.488469 1095.370461,4014.204793 1064.061725,4007.082058 1057.314687,4036.354657"/>
    <poly id="1026894864" type="amenity" color="237,199,199" fill="1" layer="-1.00" shape="1972.983483,4204.690060 1979.202900,4194.889943 1982.356663,4196.872638 1986.627665,4190.128851 1983.307926,4188.047040 1986.962472,4182.266666 1976.450004,4175.690852 1973.411889,4180.496757 1971.187680,4179.108910 1966.135092,4187.070813 1970.472860,4189.780430 1964.418574,4199.325847 1972.983483,4204.690060"/>
    <poly id="1026894864#1" type="building" color="255,230,230" fill="1" layer="-1.00" shape="1972.983483,4204.690060 1979.202900,4194.889943 1982.356663,4196.872638 1986.627665,4190.128851 1983.307926,4188.047040 1986.962472,4182.266666 1976.450004,4175.690852 1973.411889,4180.496757 1971.187680,4179.108910 1966.135092,4187.070813 1970.472860,4189.780430 1964.418574,4199.325847 1972.983483,4204.690060"/>
    <poly id="1026981925" type="landuse" color="194,194,130" fill="1" layer="-3.00" shape="290.781279,3954.657652 289.938031,3953.211243 289.933993,3951.541667 290.660464,3950.389996 314.322963,3943.676541 316.002213,3943.572969 317.783151,3944.397927 319.254977,3945.334200 320.826220,3946.259177 321.879939,3947.926215 323.255075,3950.001579 323.991118,3952.808241 323.576780,3955.098012 320.356501,3966.770784 317.340599,3976.143236 316.193748,3977.085842 314.406280,3978.129509 312.528412,3978.344131 310.218847,3978.239148 308.129546,3977.835097 306.236832,3976.479681 290.781279,3954.657652"/>
    <poly id="1026981926" type="building" color="255,230,230" fill="1" layer="-1.00" shape="450.214298,3900.657594 451.305472,3894.960679 426.693343,3888.220169 425.038204,3893.730481 450.214298,3900.657594"/>
    <poly id="1026981927" type="building" color="255,230,230" fill="1" layer="-1.00" shape="421.337149,3893.927389 426.119563,3879.398186 403.904663,3872.463927 399.312764,3888.098359 421.337149,3893.927389"/>
    <poly id="1026981928" type="building" color="255,230,230" fill="1" layer="-1.00" shape="423.964933,3399.016312 428.367788,3387.429158 460.758906,3398.728466 462.771843,3399.530758 464.376405,3400.522002 464.382677,3403.120346 462.195938,3412.711914 423.964933,3399.016312"/>
    <poly id="1026981929" type="building" color="255,230,230" fill="1" layer="-1.00" shape="429.447686,3372.477688 434.455939,3355.349591 464.199732,3363.946367 459.180395,3381.063429 429.447686,3372.477688"/>
    <poly id="1026981930" type="building" color="255,230,230" fill="1" layer="-1.00" shape="381.419578,3300.878911 385.555809,3288.695328 422.988544,3301.231874 418.852307,3313.415453 381.419578,3300.878911"/>
    <poly id="1028510602" type="building" color="255,230,230" fill="1" layer="-1.00" shape="3808.982497,3532.180163 3816.738883,3532.084536 3816.697887,3528.745498 3820.001533,3528.704563 3819.865444,3517.814000 3808.805384,3517.939506 3808.982497,3532.180163"/>
    <poly id="1028510603" type="building" color="255,230,230" fill="1" layer="-1.00" shape="4083.798138,3441.588479 4093.371467,3434.135912 4062.950637,3395.563995 4053.377303,3403.016567 4083.798138,3441.588479"/>
    <poly id="1028510604" type="building" color="255,230,230" fill="1" layer="-1.00" shape="4298.866570,3335.017503 4305.871339,3334.802088 4305.213661,3313.453107 4298.219938,3313.668497 4298.866570,3335.017503"/>
    <poly id="1028514731" type="building" color="255,230,230" fill="1" layer="-1.00" shape="3207.316679,3266.521895 3222.942313,3271.969154 3226.652290,3261.500706 3211.026628,3256.042390 3207.316679,3266.521895"/>
    <poly id="1028514732" type="building" color="255,230,230" fill="1" layer="-1.00" shape="3299.830693,3302.956673 3311.632944,3303.603289 3311.908462,3298.616045 3300.106209,3297.969428 3299.830693,3302.956673"/>
    <poly id="1028514733" type="leisure" color="207,245,201" fill="1" layer="-2.00" shape="3133.096992,3224.007049 3133.977125,3222.390683 3135.898324,3221.800136 3143.455700,3221.627490 3145.689414,3222.363016 3175.507694,3244.052284 3181.477341,3235.955699 3192.136196,3243.703428 3190.858547,3245.431298 3202.070830,3253.586822 3201.782576,3257.855409 3199.716425,3262.570465 3185.553951,3277.806946 3134.874937,3279.706788 3132.030612,3277.745405 3133.096992,3224.007049"/>
    <poly id="1028514733#1" type="sport" color="79,230,125" fill="1" layer="-2.00" shape="3133.096992,3224.007049 3133.977125,3222.390683 3135.898324,3221.800136 3143.455700,3221.627490 3145.689414,3222.363016 3175.507694,3244.052284 3181.477341,3235.955699 3192.136196,3243.703428 3190.858547,3245.431298 3202.070830,3253.586822 3201.782576,3257.855409 3199.716425,3262.570465 3185.553951,3277.806946 3134.874937,3279.706788 3132.030612,3277.745405 3133.096992,3224.007049"/>
    <poly id="1028514734" type="leisure" color="207,245,201" fill="1" layer="-2.00" shape="3164.004313,3229.606159 3179.844890,3209.091640 3189.198440,3216.212216 3173.357863,3236.726733 3164.004313,3229.606159"/>
    <poly id="1028514734#1" type="sport" color="79,230,125" fill="1" layer="-2.00" shape="3164.004313,3229.606159 3179.844890,3209.091640 3189.198440,3216.212216 3173.357863,3236.726733 3164.004313,3229.606159"/>
    <poly id="1028514735" type="leisure" color="207,245,201" fill="1" layer="-2.00" shape="3152.482088,3221.219182 3168.311615,3200.704685 3177.665169,3207.825260 3161.824592,3228.339780 3152.482088,3221.219182"/>
    <poly id="1028514735#1" type="sport" color="79,230,125" fill="1" layer="-2.00" shape="3152.482088,3221.219182 3168.311615,3200.704685 3177.665169,3207.825260 3161.824592,3228.339780 3152.482088,3221.219182"/>
    <poly id="1028514736" type="landuse" color="194,194,130" fill="1" layer="-3.00" shape="3152.807208,3335.467874 3152.745354,3327.993653 3158.369138,3327.847687 3158.298608,3335.410675 3152.807208,3335.467874"/>
    <poly id="1028602805" type="building" color="255,230,230" fill="1" layer="-1.00" shape="2609.753456,4527.137275 2619.552169,4535.649824 2629.901370,4524.734305 2641.481765,4534.414644 2653.905412,4522.322184 2642.909200,4512.043389 2653.559520,4502.299180 2643.459673,4492.604264 2609.753456,4527.137275"/>
    <poly id="1028602806" type="building" color="255,230,230" fill="1" layer="-1.00" shape="2574.155040,4076.923446 2586.459271,4074.981394 2581.499799,4047.760328 2569.352351,4050.586550 2574.155040,4076.923446"/>
    <poly id="1028602807" type="building" color="255,230,230" fill="1" layer="-1.00" shape="2579.099001,4102.264896 2594.130978,4099.730355 2589.996476,4075.592171 2574.975541,4078.126685 2579.099001,4102.264896"/>
    <poly id="1028871865" type="building" color="255,230,230" fill="1" layer="-1.00" shape="1547.369853,4528.677537 1558.142921,4524.118424 1551.787217,4509.273294 1584.040249,4495.640354 1577.351197,4480.010986 1534.325055,4498.191986 1547.369853,4528.677537"/>
    <poly id="1028871866" type="building" color="255,230,230" fill="1" layer="-1.00" shape="1853.170082,4516.258500 1849.758763,4508.217300 1842.210294,4502.806455 1844.272908,4501.308855 1842.195543,4496.636793 1826.753944,4503.407310 1835.475846,4523.609354 1853.170082,4516.258500"/>
    <poly id="1028871868" type="building" color="255,230,230" fill="1" layer="-1.00" shape="1903.717122,4524.297600 1932.571752,4512.630064 1927.792742,4500.965498 1898.938105,4512.633036 1903.717122,4524.297600"/>
    <poly id="1028871869" type="building" color="255,230,230" fill="1" layer="-1.00" shape="1898.938105,4512.633036 1895.781557,4504.856589 1924.592319,4493.321837 1927.792742,4500.965498 1898.938105,4512.633036"/>
    <poly id="1028871870" type="building" color="255,230,230" fill="1" layer="-1.00" shape="1895.781557,4504.856589 1890.423809,4491.446433 1919.035562,4479.856870 1924.592319,4493.321837 1895.781557,4504.856589"/>
    <poly id="1028871871" type="building" color="255,230,230" fill="1" layer="-1.00" shape="1886.164228,4479.835911 1913.937206,4468.646396 1919.035562,4479.856870 1890.423809,4491.446433 1886.164228,4479.835911"/>
    <poly id="1028871872" type="building" color="255,230,230" fill="1" layer="-1.00" shape="1950.474809,4393.793005 1981.156971,4379.312717 1968.291121,4354.255558 1938.358517,4367.993255 1950.474809,4393.793005"/>
    <poly id="1028871873" type="building" color="255,230,230" fill="1" layer="-1.00" shape="1950.657617,4294.535655 1956.930459,4307.114372 1987.224953,4292.214864 1980.952092,4279.625088 1950.657617,4294.535655"/>
    <poly id="1028871874" type="building" color="255,230,230" fill="1" layer="-1.00" shape="1987.224953,4292.214864 2000.159901,4286.047459 1992.013613,4270.896977 1980.160237,4276.542131 1987.224953,4292.214864"/>
    <poly id="1028871875" type="building" color="255,230,230" fill="1" layer="-1.00" shape="1941.433545,4313.884975 1956.930459,4307.114372 1950.657617,4294.535655 1935.744191,4300.420322 1941.433545,4313.884975"/>
    <poly id="1028871876" type="building" color="255,230,230" fill="1" layer="-1.00" shape="1862.655723,4310.523955 1899.364469,4293.397702 1894.443755,4282.551677 1858.112443,4300.417836 1862.655723,4310.523955"/>
    <poly id="1028871878" type="building" color="255,230,230" fill="1" layer="-1.00" shape="1875.413252,4243.986788 1889.853743,4239.009893 1884.469203,4223.642744 1870.039784,4228.630669 1875.413252,4243.986788"/>
    <poly id="1028871879" type="building" color="255,230,230" fill="1" layer="-1.00" shape="1859.716783,4245.859726 1869.919442,4243.004803 1864.896269,4226.276804 1854.219894,4229.718870 1859.716783,4245.859726"/>
    <poly id="1028871880" type="building" color="255,230,230" fill="1" layer="-1.00" shape="1774.560153,4264.229635 1785.531277,4259.294177 1767.870223,4220.493844 1756.888043,4225.429332 1774.560153,4264.229635"/>
    <poly id="1028871881" type="building" color="255,230,230" fill="1" layer="-1.00" shape="1754.963141,4256.791045 1764.785391,4251.957841 1753.192654,4227.981236 1743.017938,4233.279670 1754.963141,4256.791045"/>
    <poly id="1028871882" type="building" color="255,230,230" fill="1" layer="-1.00" shape="1754.963141,4256.791045 1745.681906,4261.457104 1733.736699,4237.945731 1743.017938,4233.279670 1754.963141,4256.791045"/>
    <poly id="1028871883" type="building" color="255,230,230" fill="1" layer="-1.00" shape="1733.080218,4268.364584 1745.681906,4261.457104 1733.736699,4237.945731 1721.232226,4243.924209 1733.080218,4268.364584"/>
    <poly id="1028871885" type="building" color="255,230,230" fill="1" layer="-1.00" shape="1299.804468,4308.820455 1322.795247,4326.124482 1363.520032,4278.968912 1339.053183,4258.948430 1299.804468,4308.820455"/>
    <poly id="1028871889" type="building" color="255,230,230" fill="1" layer="-1.00" shape="1863.045112,4311.639762 1835.177341,4324.808686 1834.211281,4322.809713 1831.728026,4323.987671 1830.217809,4320.840092 1827.226848,4322.251456 1824.017627,4315.558704 1836.433960,4309.691028 1835.545588,4307.835608 1856.482273,4297.933951 1863.045112,4311.639762"/>
    <poly id="1028923944" type="building" color="255,230,230" fill="1" layer="-1.00" shape="3403.793226,3536.860234 3414.752705,3536.248383 3413.504474,3508.277753 3402.843320,3508.888900 3403.793226,3536.860234"/>
    <poly id="1028923945" type="building" color="255,230,230" fill="1" layer="-1.00" shape="3271.121432,3451.494488 3293.339466,3450.568565 3292.989001,3428.478002 3270.174322,3429.416389 3271.121432,3451.494488"/>
    <poly id="1028923946" type="building" color="255,230,230" fill="1" layer="-1.00" shape="3236.213044,3478.079938 3247.768495,3477.168114 3247.149593,3467.749222 3252.784019,3467.437387 3252.763162,3458.603090 3235.870228,3459.240039 3236.213044,3478.079938"/>
    <poly id="1028923947" type="building" color="255,230,230" fill="1" layer="-1.00" shape="3255.786187,3480.101339 3255.459423,3472.738312 3257.836400,3473.318709 3257.218161,3459.499227 3267.150495,3459.066680 3267.372698,3464.262830 3262.511513,3464.484383 3263.177445,3479.785357 3255.786187,3480.101339"/>
    <poly id="1028923948" type="building" color="255,230,230" fill="1" layer="-1.00" shape="3237.177631,3512.231974 3235.647660,3491.327264 3245.127934,3491.304880 3245.449889,3501.310482 3249.604414,3501.300673 3249.628065,3511.318036 3237.177631,3512.231974"/>