<?xml version="1.0" encoding="UTF-8"?>

<!-- generated on 2025-10-24 12:35:48.897210 by randomTrips.py v1_24_0+0000-b72eb3fabc8
<configuration>
    <net-file value="test.net.xml"/>
    <route-file value="map.rou.xml"/>
    <length value="True"/>
    <end value="1000.0"/>
</configuration>
-->

<routes xmlns:xsi="http://www.w3.org/2001/XMLSchema-instance" xsi:noNamespaceSchemaLocation="http://sumo.dlr.de/xsd/routes_file.xsd">
    <trip id="0" depart="0.00" from="377061440" to="-131497266#0"/>
    <trip id="1" depart="1.00" from="-51914527#2" to="-475478808#0"/>
    <trip id="2" depart="2.00" from="455043461" to="386048812"/>
    <trip id="3" depart="3.00" from="54225112" to="-306675158#1"/>
    <trip id="4" depart="4.00" from="1135591776#0" to="-13858379#4"/>
    <trip id="5" depart="5.00" from="-475478809#5" to="200573235#3"/>
    <trip id="6" depart="6.00" from="-1348846195" to="-393272861"/>
    <trip id="7" depart="7.00" from="-477647320" to="346326711#22"/>
    <trip id="8" depart="8.00" from="50159548#5" to="-1105981047"/>
    <trip id="9" depart="9.00" from="50002945#0" to="390003247#3"/>
    <trip id="10" depart="10.00" from="-553273001" to="-385841804#1"/>
    <trip id="11" depart="11.00" from="687607144" to="-54225363#4"/>
    <trip id="12" depart="12.00" from="51914527#3" to="350014237#12"/>
    <trip id="13" depart="13.00" from="50002945#2" to="418989093"/>
    <trip id="14" depart="14.00" from="24790517#0" to="816466883"/>
    <trip id="15" depart="15.00" from="-925078218" to="306675158#0"/>
    <trip id="16" depart="16.00" from="51189381#0" to="352006250"/>
    <trip id="17" depart="17.00" from="53090913#2" to="343119763#2"/>
    <trip id="18" depart="18.00" from="391086660#0" to="-18599172#0"/>
    <trip id="19" depart="19.00" from="-48730299#0" to="-53091316"/>
    <trip id="20" depart="20.00" from="-24773528#1" to="-48730297#0"/>
    <trip id="21" depart="21.00" from="-346326711#16" to="-52445146#1"/>
    <trip id="22" depart="22.00" from="376923674" to="-584930588#1"/>
    <trip id="23" depart="23.00" from="-747180279" to="-405512603"/>
    <trip id="24" depart="24.00" from="-50738235#1" to="608461988"/>
    <trip id="25" depart="25.00" from="378848515#0" to="350014237#8"/>
    <trip id="26" depart="26.00" from="-389276442" to="418989093"/>
    <trip id="27" depart="27.00" from="-386048812" to="-8111662#0"/>
    <trip id="28" depart="28.00" from="940233622#8" to="376594232"/>
    <trip id="29" depart="29.00" from="309917887#3" to="389274952#0"/>
    <trip id="30" depart="30.00" from="518512203" to="48702707"/>
    <trip id="31" depart="31.00" from="-48731368#0" to="-13858379#7"/>
    <trip id="32" depart="32.00" from="-54225121#2" to="-50732593#7"/>
    <trip id="33" depart="33.00" from="-467592551#3" to="665914480#4"/>
    <trip id="34" depart="34.00" from="53473738" to="-54225113#0"/>
    <trip id="35" depart="35.00" from="378863527#1" to="1089605503#2"/>
    <trip id="36" depart="36.00" from="54225363#8" to="13758947#3"/>
    <trip id="37" depart="37.00" from="-50738235#1" to="-48891772"/>
    <trip id="38" depart="38.00" from="311101595#4" to="-50633780#0"/>
    <trip id="39" depart="39.00" from="346326375" to="54225119#1"/>
    <trip id="40" depart="40.00" from="1116740481" to="-46940715#0"/>
    <trip id="41" depart="41.00" from="98963843#1" to="203572804"/>
    <trip id="42" depart="42.00" from="-311546251" to="-18599172#6"/>
    <trip id="43" depart="43.00" from="-34698634#1" to="356689199#2"/>
    <trip id="44" depart="44.00" from="48755166#0" to="112452775#3"/>
    <trip id="45" depart="45.00" from="-228885210#2" to="-8748509#4"/>
    <trip id="46" depart="46.00" from="98963843#1" to="23951712#0"/>
    <trip id="47" depart="47.00" from="839348507" to="52447031"/>
    <trip id="48" depart="48.00" from="-1132624997#0" to="391272225#2"/>
    <trip id="49" depart="49.00" from="390001790#20" to="24773532#0"/>
    <trip id="50" depart="50.00" from="-50738235#1" to="376594239#0"/>
    <trip id="51" depart="51.00" from="-34698634#1" to="115808880#2"/>
    <trip id="52" depart="52.00" from="13858379#5" to="694735316#2"/>
    <trip id="53" depart="53.00" from="53473736" to="-50633780#1"/>
    <trip id="54" depart="54.00" from="200573235#3" to="-391084174"/>
    <trip id="55" depart="55.00" from="54225362#1" to="53091316"/>
    <trip id="56" depart="56.00" from="-53473734" to="371206041"/>
    <trip id="57" depart="57.00" from="352006252#1" to="-379857061"/>
    <trip id="58" depart="58.00" from="475578804#1" to="24790517#0"/>
    <trip id="59" depart="59.00" from="48726959#6" to="23951713#0"/>
    <trip id="60" depart="60.00" from="-1020253345#4" to="-54225323#0"/>
    <trip id="61" depart="61.00" from="-129478361#1" to="584930044"/>
    <trip id="62" depart="62.00" from="53473751#0" to="510832815"/>
    <trip id="63" depart="63.00" from="-54225113#1" to="-199430408#1"/>
    <trip id="64" depart="64.00" from="53473750" to="679820075#0"/>
    <trip id="65" depart="65.00" from="-306675158#2" to="18598863"/>
    <trip id="66" depart="66.00" from="-233499011#19" to="475478811"/>
    <trip id="67" depart="67.00" from="48647287#2" to="-376602316"/>
    <trip id="68" depart="68.00" from="18598993#0" to="24791500#9"/>
    <trip id="69" depart="69.00" from="-50738235#1" to="53161826"/>
    <trip id="70" depart="70.00" from="1140757806#1" to="-418989093"/>
    <trip id="71" depart="71.00" from="24791500#12" to="419732613"/>
    <trip id="72" depart="72.00" from="-393277183#1" to="-539504488#2"/>
    <trip id="73" depart="73.00" from="98963841#0" to="376602343#2"/>
    <trip id="74" depart="74.00" from="1206019216" to="233499011#0"/>
    <trip id="75" depart="75.00" from="-352006225" to="-475478809#7"/>
    <trip id="76" depart="76.00" from="-553270733" to="346326711#2"/>
    <trip id="77" depart="77.00" from="-48731536#1" to="-46940715#2"/>
    <trip id="78" depart="78.00" from="-233499011#8" to="359945309#2"/>
    <trip id="79" depart="79.00" from="-48731367" to="54225354#5"/>
    <trip id="80" depart="80.00" from="528562508#0" to="-228885223#1"/>
    <trip id="81" depart="81.00" from="-48755166#3" to="379690186"/>
    <trip id="82" depart="82.00" from="-46940716#0" to="-376923683"/>
    <trip id="83" depart="83.00" from="557370436" to="343116284"/>
    <trip id="84" depart="84.00" from="180781640#0" to="48731537#3"/>
    <trip id="85" depart="85.00" from="50061199" to="-391086660#0"/>
    <trip id="86" depart="86.00" from="-343119763#4" to="1141512442"/>
    <trip id="87" depart="87.00" from="1141512440#1" to="13858379#4"/>
    <trip id="88" depart="88.00" from="43444012#0" to="385958836#1"/>
    <trip id="89" depart="89.00" from="925078187#0" to="-343119763#10"/>
    <trip id="90" depart="90.00" from="1117292685#4" to="-54225492#1"/>
    <trip id="91" depart="91.00" from="53090913#2" to="-489485601"/>
    <trip id="92" depart="92.00" from="-391086656#1" to="129478574#11"/>
    <trip id="93" depart="93.00" from="1135591776#0" to="-52445147"/>
    <trip id="94" depart="94.00" from="-50633746" to="553270733"/>
    <trip id="95" depart="95.00" from="1301755557#0" to="52447031"/>
    <trip id="96" depart="96.00" from="306675158#1" to="-192882909"/>
    <trip id="97" depart="97.00" from="98963910#2" to="51189911#2"/>
    <trip id="98" depart="98.00" from="52145793#1" to="-389274955#8"/>
    <trip id="99" depart="99.00" from="192882923" to="-43444012#1"/>
    <trip id="100" depart="100.00" from="1116741311" to="-199430412"/>
    <trip id="101" depart="101.00" from="-941526159" to="8581742#6"/>
    <trip id="102" depart="102.00" from="-50738235#1" to="48731537#3"/>
    <trip id="103" depart="103.00" from="13858379#7" to="112452775#6"/>
    <trip id="104" depart="104.00" from="309708096#7" to="391176506"/>
    <trip id="105" depart="105.00" from="-378863527#3" to="-53195174"/>
    <trip id="106" depart="106.00" from="816470024" to="343119763#9"/>
    <trip id="107" depart="107.00" from="24791500#3" to="47014121#5"/>
    <trip id="108" depart="108.00" from="-200573235#3" to="343359263#5"/>
    <trip id="109" depart="109.00" from="201249988#0" to="51914527#1"/>
    <trip id="110" depart="110.00" from="-24790517#0" to="-391086656#1"/>
    <trip id="111" depart="111.00" from="-48731538#4" to="-356689197#2"/>
    <trip id="112" depart="112.00" from="54057561" to="-48891593"/>
    <trip id="113" depart="113.00" from="1132624997#1" to="343359263#4"/>
    <trip id="114" depart="114.00" from="238691704#1" to="590259489"/>
    <trip id="115" depart="115.00" from="-396537100#0" to="391086662#1"/>
    <trip id="116" depart="116.00" from="-48891133" to="1089605503#2"/>
    <trip id="117" depart="117.00" from="386281825#6" to="-53473734"/>
    <trip id="118" depart="118.00" from="-233589320" to="13758947#0"/>
    <trip id="119" depart="119.00" from="98963849#4" to="98963843#1"/>
    <trip id="120" depart="120.00" from="-233589890" to="-43444012#0"/>
    <trip id="121" depart="121.00" from="-50738235#1" to="589328836#1"/>
    <trip id="122" depart="122.00" from="53726591#1" to="53348240"/>
    <trip id="123" depart="123.00" from="-747178350" to="-385958837"/>
    <trip id="124" depart="124.00" from="51189914" to="391084172"/>
    <trip id="125" depart="125.00" from="356319069#0" to="888901008#2"/>
    <trip id="126" depart="126.00" from="378848515#4" to="-1107981350"/>
    <trip id="127" depart="127.00" from="50633768#0" to="-53473733"/>
    <trip id="128" depart="128.00" from="-376594241#0" to="-352006225"/>
    <trip id="129" depart="129.00" from="-346331469#2" to="306675158#1"/>
    <trip id="130" depart="130.00" from="-51189914" to="350014237#14"/>
    <trip id="131" depart="131.00" from="396033083" to="-396537099"/>
    <trip id="132" depart="132.00" from="376923638" to="-50633781#1"/>
    <trip id="133" depart="133.00" from="194455414" to="54225354#5"/>
    <trip id="134" depart="134.00" from="51914527#0" to="-311103273#5"/>
    <trip id="135" depart="135.00" from="1141512440#1" to="-51914527#3"/>
    <trip id="136" depart="136.00" from="-1020264831#5" to="48678604"/>
    <trip id="137" depart="137.00" from="376923782" to="-50633775#2"/>
    <trip id="138" depart="138.00" from="467592551#0" to="259798301#2"/>
    <trip id="139" depart="139.00" from="115808880#2" to="-1116740485"/>
    <trip id="140" depart="140.00" from="-23606880#0" to="53473750"/>
    <trip id="141" depart="141.00" from="51193425#0" to="343359263#17"/>
    <trip id="142" depart="142.00" from="-377061440" to="-376597607"/>
    <trip id="143" depart="143.00" from="-54225115#0" to="54225120#1"/>
    <trip id="144" depart="144.00" from="48847396" to="52447031"/>
    <trip id="145" depart="145.00" from="54225121#1" to="-405512604"/>
    <trip id="146" depart="146.00" from="-50633746" to="-346326711#0"/>
    <trip id="147" depart="147.00" from="48728444#1" to="53473751#1"/>
    <trip id="148" depart="148.00" from="1117294917#7" to="353791130#4"/>
    <trip id="149" depart="149.00" from="-378863527#3" to="584930588#0"/>
    <trip id="150" depart="150.00" from="53161565#1" to="841480600"/>
    <trip id="151" depart="151.00" from="503485092" to="53473736"/>
    <trip id="152" depart="152.00" from="-1307737537" to="455043491#2"/>
    <trip id="153" depart="153.00" from="-548276980" to="584931621#0"/>
    <trip id="154" depart="154.00" from="489485601" to="528562512#0"/>
    <trip id="155" depart="155.00" from="503485091" to="-50732593#4"/>
    <trip id="156" depart="156.00" from="48731538#4" to="-346331469#1"/>
    <trip id="157" depart="157.00" from="53195179" to="52447000"/>
    <trip id="158" depart="158.00" from="-48647287#1" to="50633773#1"/>
    <trip id="159" depart="159.00" from="48847395" to="-48647286#0"/>
    <trip id="160" depart="160.00" from="-1307254416" to="-391086662#1"/>
    <trip id="161" depart="161.00" from="-54225667#1" to="528803181#0"/>
    <trip id="162" depart="162.00" from="816466882#1" to="-52445147"/>
    <trip id="163" depart="163.00" from="377061465#0" to="1105981040#0"/>
    <trip id="164" depart="164.00" from="8748509#1" to="24773528#1"/>
    <trip id="165" depart="165.00" from="839348507" to="-391084173"/>
    <trip id="166" depart="166.00" from="742340803" to="-50633782#1"/>
    <trip id="167" depart="167.00" from="-346332673" to="115808880#2"/>
    <trip id="168" depart="168.00" from="419732613" to="-54225112"/>
    <trip id="169" depart="169.00" from="351661368#0" to="206092104"/>
    <trip id="170" depart="170.00" from="1020264831#5" to="343119763#13"/>
    <trip id="171" depart="171.00" from="-50633773#4" to="391086654"/>
    <trip id="172" depart="172.00" from="-1020264831#2" to="553273003"/>
    <trip id="173" depart="173.00" from="24791500#10" to="391271250#2"/>
    <trip id="174" depart="174.00" from="467592551#4" to="385397101#2"/>
    <trip id="175" depart="175.00" from="-695584417" to="-228885210#2"/>
    <trip id="176" depart="176.00" from="385957470#0" to="-54225358#0"/>
    <trip id="177" depart="177.00" from="-54225120#1" to="51911938#2"/>
    <trip id="178" depart="178.00" from="396537099" to="-53473735"/>
    <trip id="179" depart="179.00" from="-54225115#1" to="1117292685#4"/>
    <trip id="180" depart="180.00" from="1117292685#3" to="-53194745"/>
    <trip id="181" depart="181.00" from="-356689199#2" to="112452772#0"/>
    <trip id="182" depart="182.00" from="573824329" to="386048812"/>
    <trip id="183" depart="183.00" from="54225323#2" to="351661198"/>
    <trip id="184" depart="184.00" from="-1020253345#3" to="-528210236"/>
    <trip id="185" depart="185.00" from="115808880#2" to="343359263#0"/>
    <trip id="186" depart="186.00" from="378863527#0" to="1385784841"/>
    <trip id="187" depart="187.00" from="129478574#6" to="-43444012#1"/>
    <trip id="188" depart="188.00" from="180781640#1" to="54225121#2"/>
    <trip id="189" depart="189.00" from="48847396" to="-390001790#20"/>
    <trip id="190" depart="190.00" from="-306675158#1" to="23185502#2"/>
    <trip id="191" depart="191.00" from="376602318" to="-54225362#3"/>
    <trip id="192" depart="192.00" from="389274952#0" to="-475478809#6"/>
    <trip id="193" depart="193.00" from="-391272225#0" to="-131497266#0"/>
    <trip id="194" depart="194.00" from="-50061200" to="13859260#0"/>
    <trip id="195" depart="195.00" from="52445146#2" to="-232726953"/>
    <trip id="196" depart="196.00" from="112452775#1" to="359934144"/>
    <trip id="197" depart="197.00" from="-391086661" to="390001792#0"/>
    <trip id="198" depart="198.00" from="199428333" to="-48755166#0"/>
    <trip id="199" depart="199.00" from="379690186" to="-1097159022"/>
    <trip id="200" depart="200.00" from="475476944" to="48677467#4"/>
    <trip id="201" depart="201.00" from="-346331469#1" to="1132624997#0"/>
    <trip id="202" depart="202.00" from="-390001792#0" to="698574666"/>
    <trip id="203" depart="203.00" from="23581014#1" to="-187888353"/>
    <trip id="204" depart="204.00" from="-50633746" to="51911938#2"/>
    <trip id="205" depart="205.00" from="385959107" to="915331138#1"/>
    <trip id="206" depart="206.00" from="54225112" to="351660877"/>
    <trip id="207" depart="207.00" from="396537099" to="200573235#0"/>
    <trip id="208" depart="208.00" from="54225119#0" to="46940707#4"/>
    <trip id="209" depart="209.00" from="18598863" to="-50633770#1"/>
    <trip id="210" depart="210.00" from="-50633740#0" to="366452499#3"/>
    <trip id="211" depart="211.00" from="48647287#2" to="233499011#9"/>
    <trip id="212" depart="212.00" from="366452499#2" to="-518512204"/>
    <trip id="213" depart="213.00" from="-23951713#0" to="-52774235#1"/>
    <trip id="214" depart="214.00" from="-51189911#2" to="-54225119#1"/>
    <trip id="215" depart="215.00" from="24791500#2" to="-378848515#0"/>
    <trip id="216" depart="216.00" from="-48731537#3" to="390001790#20"/>
    <trip id="217" depart="217.00" from="391086662#2" to="-200573236#1"/>
    <trip id="218" depart="218.00" from="1117294938" to="24791500#10"/>
    <trip id="219" depart="219.00" from="112452775#5" to="-396539309"/>
    <trip id="220" depart="220.00" from="1132624997#1" to="54225339#1"/>
    <trip id="221" depart="221.00" from="345487850" to="390001791#3"/>
    <trip id="222" depart="222.00" from="52450856" to="486761232#0"/>
    <trip id="223" depart="223.00" from="1000695191#0" to="-1105981040#0"/>
    <trip id="224" depart="224.00" from="-608461989" to="475476946"/>
    <trip id="225" depart="225.00" from="52447000" to="694735316#2"/>
    <trip id="226" depart="226.00" from="1132624997#1" to="47014121#4"/>
    <trip id="227" depart="227.00" from="24793835#0" to="350014237#11"/>
    <trip id="228" depart="228.00" from="-477647320" to="-46940715#0"/>
    <trip id="229" depart="229.00" from="119971340#1" to="-13858379#2"/>
    <trip id="230" depart="230.00" from="-552411646" to="386048812"/>
    <trip id="231" depart="231.00" from="1117292688#0" to="-389274955#21"/>
    <trip id="232" depart="232.00" from="173112621" to="-376597607"/>
    <trip id="233" depart="233.00" from="359945311#0" to="-1348127357"/>
    <trip id="234" depart="234.00" from="1105981040#1" to="311103269"/>
    <trip id="235" depart="235.00" from="-1348846195" to="376597607"/>
    <trip id="236" depart="236.00" from="-376597607" to="1376199170#1"/>
    <trip id="237" depart="237.00" from="-192882922" to="-797374083"/>
    <trip id="238" depart="238.00" from="-467592567" to="-54225336#1"/>
    <trip id="239" depart="239.00" from="475478810#0" to="-797374083"/>
    <trip id="240" depart="240.00" from="475476945" to="510832816"/>
    <trip id="241" depart="241.00" from="-50633768#0" to="-24773528#0"/>
    <trip id="242" depart="242.00" from="-129478360" to="24790517#0"/>
    <trip id="243" depart="243.00" from="993663941" to="-553270737"/>
    <trip id="244" depart="244.00" from="378848515#0" to="48730299#1"/>
    <trip id="245" depart="245.00" from="378848515#0" to="475476947"/>
    <trip id="246" depart="246.00" from="620766965" to="-393272862"/>
    <trip id="247" depart="247.00" from="-129478361#3" to="-379857061"/>
    <trip id="248" depart="248.00" from="-356689198#0" to="385396540#2"/>
    <trip id="249" depart="249.00" from="311103273#5" to="-467592567"/>
    <trip id="250" depart="250.00" from="391086656#1" to="486761232#4"/>
    <trip id="251" depart="251.00" from="-389274955#12" to="350014237#4"/>
    <trip id="252" depart="252.00" from="47014121#1" to="-351661202"/>
    <trip id="253" depart="253.00" from="50633773#1" to="747180595"/>
    <trip id="254" depart="254.00" from="-346332440" to="-131497266#0"/>
    <trip id="255" depart="255.00" from="-54225119#0" to="386048812"/>
    <trip id="256" depart="256.00" from="687607144" to="1089605503#2"/>
    <trip id="257" depart="257.00" from="393272862" to="-233499011#22"/>
    <trip id="258" depart="258.00" from="391084172" to="356689199#0"/>
    <trip id="259" depart="259.00" from="-346326711#2" to="48678609#2"/>
    <trip id="260" depart="260.00" from="-352006225" to="8581742#4"/>
    <trip id="261" depart="261.00" from="48730297#5" to="-552411650#3"/>
    <trip id="262" depart="262.00" from="115808880#2" to="-591870191"/>
    <trip id="263" depart="263.00" from="203572804" to="-54225667#0"/>
    <trip id="264" depart="264.00" from="52445146#2" to="50634208"/>
    <trip id="265" depart="265.00" from="376923674" to="50738235#1"/>
    <trip id="266" depart="266.00" from="391086662#2" to="115808880#2"/>
    <trip id="267" depart="267.00" from="455043369#1" to="747181181"/>
    <trip id="268" depart="268.00" from="-51189381#0" to="50633737#0"/>
    <trip id="269" depart="269.00" from="24791500#10" to="173114258"/>
    <trip id="270" depart="270.00" from="1187063217" to="43444012#1"/>
    <trip id="271" depart="271.00" from="-510832815" to="51911938#2"/>
    <trip id="272" depart="272.00" from="51189382#0" to="-306675158#1"/>
    <trip id="273" depart="273.00" from="53788102" to="-48755166#0"/>
    <trip id="274" depart="274.00" from="-941526159" to="-13758947#5"/>
    <trip id="275" depart="275.00" from="-467596209#1" to="48891775"/>
    <trip id="276" depart="276.00" from="-553273001" to="53473733"/>
    <trip id="277" depart="277.00" from="391086657#0" to="-51914527#2"/>
    <trip id="278" depart="278.00" from="-1117306183#0" to="687607144"/>
    <trip id="279" depart="279.00" from="-306675158#2" to="391272225#0"/>
    <trip id="280" depart="280.00" from="194455414" to="475478808#0"/>
    <trip id="281" depart="281.00" from="391084172" to="376602319"/>
    <trip id="282" depart="282.00" from="196287359#3" to="48847396"/>
    <trip id="283" depart="283.00" from="-343119761#0" to="-46940716#3"/>
    <trip id="284" depart="284.00" from="391084174" to="-53726591#1"/>
    <trip id="285" depart="285.00" from="343359263#17" to="13859260#0"/>
    <trip id="286" depart="286.00" from="24745879#3" to="1132624997#0"/>
    <trip id="287" depart="287.00" from="46940715#2" to="-54225358#0"/>
    <trip id="288" depart="288.00" from="391086660#0" to="-51189911#1"/>
    <trip id="289" depart="289.00" from="-50633751" to="-356689198#0"/>
    <trip id="290" depart="290.00" from="-391086656#8" to="-356689197#2"/>
    <trip id="291" depart="291.00" from="24775231#2" to="475578804#3"/>
    <trip id="292" depart="292.00" from="-391086652#5" to="-467592551#0"/>
    <trip id="293" depart="293.00" from="187888353" to="396537099"/>
    <trip id="294" depart="294.00" from="8581742#3" to="233598704#0"/>
    <trip id="295" depart="295.00" from="-52774235#1" to="-343119763#6"/>
    <trip id="296" depart="296.00" from="-391086659" to="-48647286#0"/>
    <trip id="297" depart="297.00" from="-390003247#6" to="-1132624997#1"/>
    <trip id="298" depart="298.00" from="24773532#1" to="-518512203"/>
    <trip id="299" depart="299.00" from="8581742#2" to="306675158#1"/>
    <trip id="300" depart="300.00" from="391086655#0" to="-376594237#0"/>
    <trip id="301" depart="301.00" from="53194744#1" to="18599172#10"/>
    <trip id="302" depart="302.00" from="53348240" to="343119761#1"/>
    <trip id="303" depart="303.00" from="173112627#0" to="115808880#5"/>
    <trip id="304" depart="304.00" from="-391086652#4" to="-192882922"/>
    <trip id="305" depart="305.00" from="573824332" to="1387997563#1"/>
    <trip id="306" depart="306.00" from="50633780#0" to="1105989854#1"/>
    <trip id="307" depart="307.00" from="-233591608" to="359934144"/>
    <trip id="308" depart="308.00" from="-200540874" to="-378848515#6"/>
    <trip id="309" depart="309.00" from="311103271#1" to="-53473750"/>
    <trip id="310" depart="310.00" from="98963841#0" to="-356689197#0"/>
    <trip id="311" depart="311.00" from="48588825#2" to="350014237#2"/>
    <trip id="312" depart="312.00" from="487442009" to="-475478810#0"/>
    <trip id="313" depart="313.00" from="238691704#0" to="1299286352"/>
    <trip id="314" depart="314.00" from="1300916288#0" to="52447002#1"/>
    <trip id="315" depart="315.00" from="941526159" to="-53726589"/>
    <trip id="316" depart="316.00" from="359945309#0" to="350014237#8"/>
    <trip id="317" depart="317.00" from="467592516#2" to="687607144"/>
    <trip id="318" depart="318.00" from="-43444012#1" to="-418989093"/>
    <trip id="319" depart="319.00" from="385396540#2" to="-385958836#0"/>
    <trip id="320" depart="320.00" from="-390001790#2" to="-233499011#12"/>
    <trip id="321" depart="321.00" from="-1020264831#4" to="1299286352"/>
    <trip id="322" depart="322.00" from="350014237#1" to="-53194664"/>
    <trip id="323" depart="323.00" from="-48731537#3" to="391086653#0"/>
    <trip id="324" depart="324.00" from="391086660#0" to="1348127357"/>
    <trip id="325" depart="325.00" from="391084167" to="553271457"/>
    <trip id="326" depart="326.00" from="48733052" to="356689197#2"/>
    <trip id="327" depart="327.00" from="385397101#2" to="590259484"/>
    <trip id="328" depart="328.00" from="378848515#0" to="54225362#1"/>
    <trip id="329" depart="329.00" from="50732593#7" to="-23185502#0"/>
    <trip id="330" depart="330.00" from="-389274952#1" to="-53788104"/>
    <trip id="331" depart="331.00" from="-53161565#0" to="-366452499#2"/>
    <trip id="332" depart="332.00" from="391084170#0" to="391084167"/>
    <trip id="333" depart="333.00" from="584930588#0" to="19882433#3"/>
    <trip id="334" depart="334.00" from="199428332#0" to="-23951713#0"/>
    <trip id="335" depart="335.00" from="-173114258" to="115808880#0"/>
    <trip id="336" depart="336.00" from="-54225362#0" to="-49330955"/>
    <trip id="337" depart="337.00" from="-317497969#2" to="747178350"/>
    <trip id="338" depart="338.00" from="51193425#1" to="343119763#10"/>
    <trip id="339" depart="339.00" from="665914480#1" to="98963910#2"/>
    <trip id="340" depart="340.00" from="389274952#0" to="-510832816"/>
    <trip id="341" depart="341.00" from="173112627#1" to="376923674"/>
    <trip id="342" depart="342.00" from="54225489" to="-391086653#0"/>
    <trip id="343" depart="343.00" from="346326711#12" to="366452498"/>
    <trip id="344" depart="344.00" from="19882433#2" to="-311101595#7"/>
    <trip id="345" depart="345.00" from="-589328836#0" to="-54225362#0"/>
    <trip id="346" depart="346.00" from="386281825#16" to="52446997#1"/>
    <trip id="347" depart="347.00" from="-547501531#1" to="390001790#2"/>
    <trip id="348" depart="348.00" from="50633738" to="24793835#0"/>
    <trip id="349" depart="349.00" from="13858379#7" to="-54225112"/>
    <trip id="350" depart="350.00" from="-54225362#1" to="816466882#3"/>
    <trip id="351" depart="351.00" from="1117292687#1" to="23185502#1"/>
    <trip id="352" depart="352.00" from="940233622#2" to="377061441"/>
    <trip id="353" depart="353.00" from="24791500#3" to="1117294941#0"/>
    <trip id="354" depart="354.00" from="-391086653#3" to="-572405040"/>
    <trip id="355" depart="355.00" from="475478809#4" to="-396537099"/>
    <trip id="356" depart="356.00" from="259798301#1" to="570981155#0"/>
    <trip id="357" depart="357.00" from="1206019216" to="390003247#3"/>
    <trip id="358" depart="358.00" from="-352006249" to="816466883"/>
    <trip id="359" depart="359.00" from="352006252#1" to="-487441123"/>
    <trip id="360" depart="360.00" from="-385959105" to="249492802#2"/>
    <trip id="361" depart="361.00" from="308344854#1" to="-311545831"/>
    <trip id="362" depart="362.00" from="51189911#1" to="196287358"/>
    <trip id="363" depart="363.00" from="393277185" to="202650653#1"/>
    <trip id="364" depart="364.00" from="-514622819" to="51189382#1"/>
    <trip id="365" depart="365.00" from="8581742#6" to="-48755166#0"/>
    <trip id="366" depart="366.00" from="306675158#1" to="-98963849#4"/>
    <trip id="367" depart="367.00" from="547501531#1" to="201249988#0"/>
    <trip id="368" depart="368.00" from="53473751#2" to="528562508#2"/>
    <trip id="369" depart="369.00" from="-52445146#1" to="487441125"/>
    <trip id="370" depart="370.00" from="112452775#3" to="590259485"/>
    <trip id="371" depart="371.00" from="206092105" to="50633782#0"/>
    <trip id="372" depart="372.00" from="346326711#19" to="98963849#5"/>
    <trip id="373" depart="373.00" from="196287358" to="-378848515#4"/>
    <trip id="374" depart="374.00" from="24791500#10" to="-547501531#1"/>
    <trip id="375" depart="375.00" from="306675158#2" to="24791500#12"/>
    <trip id="376" depart="376.00" from="13858379#7" to="-54225121#2"/>
    <trip id="377" depart="377.00" from="-391086654" to="390003247#1"/>
    <trip id="378" depart="378.00" from="343116285#5" to="-48730297#5"/>
    <trip id="379" depart="379.00" from="48702405#0" to="-18599011#1"/>
    <trip id="380" depart="380.00" from="46940707#4" to="391086652#3"/>
    <trip id="381" depart="381.00" from="50633736" to="1020253345#1"/>
    <trip id="382" depart="382.00" from="385957327" to="50633782#1"/>
    <trip id="383" depart="383.00" from="8581742#7" to="194099239#0"/>
    <trip id="384" depart="384.00" from="-143399474#1" to="200540874"/>
    <trip id="385" depart="385.00" from="346331469#1" to="53091314#2"/>
    <trip id="386" depart="386.00" from="53473734" to="115808880#5"/>
    <trip id="387" depart="387.00" from="23951713#3" to="13758914#0"/>
    <trip id="388" depart="388.00" from="396538190" to="1117292693"/>
    <trip id="389" depart="389.00" from="378863527#0" to="-385839231"/>
    <trip id="390" depart="390.00" from="173112627#1" to="816466882#2"/>
    <trip id="391" depart="391.00" from="-553271457" to="390001790#16"/>
    <trip id="392" depart="392.00" from="378848515#0" to="51911938#2"/>
    <trip id="393" depart="393.00" from="52446997#0" to="52447000"/>
    <trip id="394" depart="394.00" from="-98963849#5" to="-54225115#1"/>
    <trip id="395" depart="395.00" from="396537098" to="475478809#6"/>
    <trip id="396" depart="396.00" from="53195179" to="-173112619"/>
    <trip id="397" depart="397.00" from="-233499011#11" to="359945311#0"/>
    <trip id="398" depart="398.00" from="547501530" to="98963843#1"/>
    <trip id="399" depart="399.00" from="46940716#0" to="115808880#2"/>
    <trip id="400" depart="400.00" from="-343119763#9" to="360011380#1"/>
    <trip id="401" depart="401.00" from="53195179" to="1218404185"/>
    <trip id="402" depart="402.00" from="391086652#5" to="54225330#0"/>
    <trip id="403" depart="403.00" from="-18599172#10" to="48891593"/>
    <trip id="404" depart="404.00" from="-53194744#0" to="-688704915#1"/>
    <trip id="405" depart="405.00" from="-376923782" to="23951713#0"/>
    <trip id="406" depart="406.00" from="313240782" to="48847395"/>
    <trip id="407" depart="407.00" from="-389274955#3" to="-23606949#1"/>
    <trip id="408" depart="408.00" from="53195174" to="352006253#0"/>
    <trip id="409" depart="409.00" from="-48891774" to="54225496"/>
    <trip id="410" depart="410.00" from="-376923674" to="1376199170#1"/>
    <trip id="411" depart="411.00" from="-50633771" to="-50633740#0"/>
    <trip id="412" depart="412.00" from="-1116740486#0" to="50061483#0"/>
    <trip id="413" depart="413.00" from="54225122#0" to="386048812"/>