<?xml version="1.0" encoding="UTF-8"?>
<configuration>
  <input>
    <net-file value="grid.net.xml"/>
    <route-files value="grid.rou.xml"/>
  </input>
  <time>
    <begin value="0"/>
    <end value="3600"/>
    <step-length value="1.0"/>
  </time>
  <report>
    <no-step-log value="true"/>
  </report>
</configuration>
