<?xml version="1.0" encoding="UTF-8"?>

<!-- generated on 2025-10-16 15:12:49 by Eclipse SUMO netconvert Version 1.24.0
<netconvertConfiguration xmlns:xsi="http://www.w3.org/2001/XMLSchema-instance" xsi:noNamespaceSchemaLocation="http://sumo.dlr.de/xsd/netconvertConfiguration.xsd">

    <input>
        <node-files value="data/sample_nets/grid.nod.xml"/>
        <edge-files value="data/sample_nets/grid.edg.xml"/>
    </input>

    <output>
        <output-file value="data/sample_nets/grid.net.xml"/>
    </output>

    <building_defaults>
        <default.lanenumber value="1"/>
        <default.speed value="13.9"/>
    </building_defaults>

    <tls_building>
        <tls.guess value="true"/>
        <tls.layout value="opposites"/>
    </tls_building>

</netconvertConfiguration>
-->

<net version="1.20" junctionCornerDetail="5" limitTurnSpeed="5.50" xmlns:xsi="http://www.w3.org/2001/XMLSchema-instance" xsi:noNamespaceSchemaLocation="http://sumo.dlr.de/xsd/net_file.xsd">

    <location netOffset="-100.00,-100.00" convBoundary="0.00,0.00,100.00,100.00" origBoundary="100.00,100.00,200.00,200.00" projParameter="!"/>

    <edge id=":J0_0" function="internal">
        <lane id=":J0_0_0" index="0" speed="6.08" length="7.74" shape="3.20,101.60 1.10,101.30 -0.40,100.40 -1.30,98.90 -1.60,96.80"/>
    </edge>
    <edge id=":J0_1" function="internal">
        <lane id=":J0_1_0" index="0" speed="3.90" length="2.58" shape="1.60,96.80 1.70,97.50 2.00,98.00 2.50,98.30 3.20,98.40"/>
    </edge>
    <edge id=":J1_0" function="internal">
        <lane id=":J1_0_0" index="0" speed="6.08" length="7.74" shape="101.60,96.80 101.30,98.90 100.40,100.40 98.90,101.30 96.80,101.60"/>
    </edge>
    <edge id=":J1_1" function="internal">
        <lane id=":J1_1_0" index="0" speed="3.90" length="2.58" shape="96.80,98.40 97.50,98.30 98.00,98.00 98.30,97.50 98.40,96.80"/>
    </edge>
    <edge id=":J2_0" function="internal">
        <lane id=":J2_0_0" index="0" speed="6.08" length="7.74" shape="-1.60,3.20 -1.30,1.10 -0.40,-0.40 1.10,-1.30 3.20,-1.60"/>
    </edge>
    <edge id=":J2_1" function="internal">
        <lane id=":J2_1_0" index="0" speed="3.90" length="2.58" shape="3.20,1.60 2.50,1.70 2.00,2.00 1.70,2.50 1.60,3.20"/>
    </edge>
    <edge id=":J3_0" function="internal">
        <lane id=":J3_0_0" index="0" speed="3.90" length="2.58" shape="98.40,3.20 98.30,2.50 98.00,2.00 97.50,1.70 96.80,1.60"/>
    </edge>
    <edge id=":J3_1" function="internal">
        <lane id=":J3_1_0" index="0" speed="6.08" length="7.74" shape="96.80,-1.60 98.90,-1.30 100.40,-0.40 101.30,1.10 101.60,3.20"/>
    </edge>

    <edge id="E0" from="J0" to="J1" priority="-1">
        <lane id="E0_0" index="0" speed="13.90" length="93.60" shape="3.20,98.40 96.80,98.40"/>
    </edge>
    <edge id="E1" from="J1" to="J0" priority="-1">
        <lane id="E1_0" index="0" speed="13.90" length="93.60" shape="96.80,101.60 3.20,101.60"/>
    </edge>
    <edge id="E2" from="J0" to="J2" priority="-1">
        <lane id="E2_0" index="0" speed="13.90" length="93.60" shape="-1.60,96.80 -1.60,3.20"/>
    </edge>
    <edge id="E3" from="J2" to="J0" priority="-1">
        <lane id="E3_0" index="0" speed="13.90" length="93.60" shape="1.60,3.20 1.60,96.80"/>
    </edge>
    <edge id="E4" from="J1" to="J3" priority="-1">
        <lane id="E4_0" index="0" speed="13.90" length="93.60" shape="98.40,96.80 98.40,3.20"/>
    </edge>
    <edge id="E5" from="J3" to="J1" priority="-1">
        <lane id="E5_0" index="0" speed="13.90" length="93.60" shape="101.60,3.20 101.60,96.80"/>
    </edge>
    <edge id="E6" from="J2" to="J3" priority="-1">
        <lane id="E6_0" index="0" speed="13.90" length="93.60" shape="3.20,-1.60 96.80,-1.60"/>
    </edge>
    <edge id="E7" from="J3" to="J2" priority="-1">
        <lane id="E7_0" index="0" speed="13.90" length="93.60" shape="96.80,1.60 3.20,1.60"/>
    </edge>

    <tlLogic id="J0" type="static" programID="0" offset="0">
        <phase duration="90" state="GG"/>
    </tlLogic>
    <tlLogic id="J1" type="static" programID="0" offset="0">
        <phase duration="90" state="GG"/>
    </tlLogic>
    <tlLogic id="J2" type="static" programID="0" offset="0">
        <phase duration="90" state="GG"/>
    </tlLogic>
    <tlLogic id="J3" type="static" programID="0" offset="0">
        <phase duration="90" state="GG"/>
    </tlLogic>

    <junction id="J0" type="traffic_light" x="0.00" y="100.00" incLanes="E1_0 E3_0" intLanes=":J0_0_0 :J0_1_0" shape="3.20,103.20 3.20,96.80 -3.20,96.80 -2.49,100.36 -1.60,101.60 -0.36,102.49 1.24,103.02">
        <request index="0" response="00" foes="00" cont="0"/>
        <request index="1" response="00" foes="00" cont="0"/>
    </junction>
    <junction id="J1" type="traffic_light" x="100.00" y="100.00" incLanes="E5_0 E0_0" intLanes=":J1_0_0 :J1_1_0" shape="103.20,96.80 96.80,96.80 96.80,103.20 100.36,102.49 101.60,101.60 102.49,100.36 103.02,98.76">
        <request index="0" response="00" foes="00" cont="0"/>
        <request index="1" response="00" foes="00" cont="0"/>
    </junction>
    <junction id="J2" type="traffic_light" x="0.00" y="0.00" incLanes="E2_0 E7_0" intLanes=":J2_0_0 :J2_1_0" shape="-3.20,3.20 3.20,3.20 3.20,-3.20 -0.36,-2.49 -1.60,-1.60 -2.49,-0.36 -3.02,1.24">
        <request index="0" response="00" foes="00" cont="0"/>
        <request index="1" response="00" foes="00" cont="0"/>
    </junction>
    <junction id="J3" type="traffic_light" x="100.00" y="0.00" incLanes="E4_0 E6_0" intLanes=":J3_0_0 :J3_1_0" shape="96.80,3.20 103.20,3.20 102.49,-0.36 101.60,-1.60 100.36,-2.49 98.76,-3.02 96.80,-3.20">
        <request index="0" response="00" foes="00" cont="0"/>
        <request index="1" response="00" foes="00" cont="0"/>
    </junction>

    <connection from="E0" to="E4" fromLane="0" toLane="0" via=":J1_1_0" tl="J1" linkIndex="1" dir="r" state="O"/>
    <connection from="E1" to="E2" fromLane="0" toLane="0" via=":J0_0_0" tl="J0" linkIndex="0" dir="l" state="O"/>
    <connection from="E2" to="E6" fromLane="0" toLane="0" via=":J2_0_0" tl="J2" linkIndex="0" dir="l" state="O"/>
    <connection from="E3" to="E0" fromLane="0" toLane="0" via=":J0_1_0" tl="J0" linkIndex="1" dir="r" state="O"/>
    <connection from="E4" to="E7" fromLane="0" toLane="0" via=":J3_0_0" tl="J3" linkIndex="0" dir="r" state="O"/>
    <connection from="E5" to="E1" fromLane="0" toLane="0" via=":J1_0_0" tl="J1" linkIndex="0" dir="l" state="O"/>
    <connection from="E6" to="E5" fromLane="0" toLane="0" via=":J3_1_0" tl="J3" linkIndex="1" dir="l" state="O"/>
    <connection from="E7" to="E3" fromLane="0" toLane="0" via=":J2_1_0" tl="J2" linkIndex="1" dir="r" state="O"/>

    <connection from=":J0_0" to="E2" fromLane="0" toLane="0" dir="l" state="M"/>
    <connection from=":J0_1" to="E0" fromLane="0" toLane="0" dir="r" state="M"/>
    <connection from=":J1_0" to="E1" fromLane="0" toLane="0" dir="l" state="M"/>
    <connection from=":J1_1" to="E4" fromLane="0" toLane="0" dir="r" state="M"/>
    <connection from=":J2_0" to="E6" fromLane="0" toLane="0" dir="l" state="M"/>
    <connection from=":J2_1" to="E3" fromLane="0" toLane="0" dir="r" state="M"/>
    <connection from=":J3_0" to="E7" fromLane="0" toLane="0" dir="r" state="M"/>
    <connection from=":J3_1" to="E5" fromLane="0" toLane="0" dir="l" state="M"/>

</net>
