<?xml version="1.0" encoding="UTF-8"?>
<nodes>
  <!-- 2x2 grid nodes with traffic lights -->
  <node id="J0" x="100" y="200" type="traffic_light"/>
  <node id="J1" x="200" y="200" type="traffic_light"/>
  <node id="J2" x="100" y="100" type="traffic_light"/>
  <node id="J3" x="200" y="100" type="traffic_light"/>
</nodes>
